 Abaqus/Standard 2023                  DATE 19-10ÔÂ-2024 TIME 22:21:40
 SUMMARY OF JOB INFORMATION:
 STEP  INC ATT SEVERE EQUIL TOTAL  TOTAL      STEP       INC OF       DOF    IF
               DISCON ITERS ITERS  TIME/    TIME/LPF    TIME/LPF    MONITOR RIKS
               ITERS               FREQ
   1     1   1     0     1     1  1.00e-05   1.00e-05   1.000e-05 
   1     2   1     0     1     1  2.00e-05   2.00e-05   1.000e-05 
   1     3   1     0     1     1  3.00e-05   3.00e-05   1.000e-05 
   1     4   1     0     1     1  4.25e-05   4.25e-05   1.250e-05 
   1     5   1     0     1     1  5.81e-05   5.81e-05   1.563e-05 
   1     6   1     0     1     1  7.77e-05   7.77e-05   1.953e-05 
   1     7   1     0     1     1  0.000102   0.000102   2.441e-05 
   1     8   1     0     1     1  0.000133   0.000133   3.052e-05 
   1     9   1     0     1     1  0.000171   0.000171   3.815e-05 
   1    10   1     0     1     1  0.000218   0.000218   4.768e-05 
   1    11   1     0     1     1  0.000278   0.000278   5.960e-05 
   1    12   1     0     1     1  0.000353   0.000353   7.451e-05 
   1    13   1     0     1     1  0.000446   0.000446   9.313e-05 
   1    14   1     0     1     1  0.000562   0.000562   0.0001164 
   1    15   1     0     1     1  0.000708   0.000708   0.0001455 
   1    16   1     0     1     1  0.000889   0.000889   0.0001819 
   1    17   1     0     1     1  0.00112    0.00112    0.0002274 
   1    18   1     0     1     1  0.00140    0.00140    0.0002842 
   1    19   1     0     1     1  0.00176    0.00176    0.0003553 
   1    20   1     0     1     1  0.00220    0.00220    0.0004441 
   1    21   1     0     1     1  0.00276    0.00276    0.0005551 
   1    22   1     0     1     1  0.00345    0.00345    0.0006939 
   1    23   1     0     1     1  0.00432    0.00432    0.0008674 
   1    24   1     0     1     1  0.00540    0.00540    0.001084  
   1    25   1     0     1     1  0.00676    0.00676    0.001355  
   1    26   1     0     1     1  0.00845    0.00845    0.001694  
   1    27   1     0     1     1  0.0106     0.0106     0.002118  
   1    28   1     0     1     1  0.0132     0.0132     0.002647  
   1    29   1     0     1     1  0.0165     0.0165     0.003309  
   1    30   1     0     1     1  0.0207     0.0207     0.004136  
   1    31   1     0     1     1  0.0258     0.0258     0.005170  
   1    32   1     0     1     1  0.0323     0.0323     0.006462  
   1    33   1     0     1     1  0.0404     0.0404     0.008078  
   1    34   1     0     1     1  0.0505     0.0505     0.01010   
   1    35   1     0     1     1  0.0631     0.0631     0.01262   
   1    36   1     0     1     1  0.0789     0.0789     0.01578   
   1    37   1     0     1     1  0.0986     0.0986     0.01972   
   1    38   1     0     1     1  0.123      0.123      0.02465   
   1    39   1     0     1     1  0.153      0.153      0.03000   
   1    40   1     0     1     1  0.183      0.183      0.03000   
   1    41   1     0     1     1  0.213      0.213      0.03000   
   1    42   1     0     1     1  0.243      0.243      0.03000   
   1    43   1     0     1     1  0.273      0.273      0.03000   
   1    44   1     0     1     1  0.303      0.303      0.03000   
   1    45   1     0     1     1  0.333      0.333      0.03000   
   1    46   1     0     1     1  0.363      0.363      0.03000   
   1    47   1     0     1     1  0.393      0.393      0.03000   
   1    48   1     0     1     1  0.423      0.423      0.03000   
   1    49   1     0     1     1  0.453      0.453      0.03000   
   1    50   1     0     1     1  0.483      0.483      0.03000   
   1    51   1     0     1     1  0.513      0.513      0.03000   
   1    52   1     0     1     1  0.543      0.543      0.03000   
   1    53   1     0     1     1  0.573      0.573      0.03000   
   1    54   1     0     1     1  0.603      0.603      0.03000   
   1    55   1     0     1     1  0.633      0.633      0.03000   
   1    56   1     0     1     1  0.663      0.663      0.03000   
   1    57   1     0     1     1  0.693      0.693      0.03000   
   1    58   1     0     1     1  0.723      0.723      0.03000   
   1    59   1     0     1     1  0.753      0.753      0.03000   
   1    60   1     0     1     1  0.783      0.783      0.03000   
   1    61   1     0     1     1  0.813      0.813      0.03000   
   1    62   1     0     1     1  0.843      0.843      0.03000   
   1    63   1     0     1     1  0.873      0.873      0.03000   
   1    64   1     0     1     1  0.903      0.903      0.03000   
   1    65   1     0     1     1  0.933      0.933      0.03000   
   1    66   1     0     1     1  0.963      0.963      0.03000   
   1    67   1     0     1     1  0.993      0.993      0.03000   
   1    68   1     0     1     1  1.02       1.02       0.03000   
   1    69   1     0     1     1  1.05       1.05       0.03000   
   1    70   1     0     1     1  1.08       1.08       0.03000   
   1    71   1     0     1     1  1.11       1.11       0.03000   
   1    72   1     0     1     1  1.14       1.14       0.03000   
   1    73   1     0     1     1  1.17       1.17       0.03000   
   1    74   1     0     1     1  1.20       1.20       0.03000   
   1    75   1     0     1     1  1.23       1.23       0.03000   
   1    76   1     0     1     1  1.26       1.26       0.03000   
   1    77   1     0     1     1  1.29       1.29       0.03000   
   1    78   1     0     1     1  1.32       1.32       0.03000   
   1    79   1     0     1     1  1.35       1.35       0.03000   
   1    80   1     0     1     1  1.38       1.38       0.03000   
   1    81   1     0     1     1  1.41       1.41       0.03000   
   1    82   1     0     1     1  1.44       1.44       0.03000   
   1    83   1     0     1     1  1.47       1.47       0.03000   
   1    84   1     0     1     1  1.50       1.50       0.03000   
   1    85   1     0     1     1  1.53       1.53       0.03000   
   1    86   1     0     1     1  1.56       1.56       0.03000   
   1    87   1     0     1     1  1.59       1.59       0.03000   
   1    88   1     0     1     1  1.62       1.62       0.03000   
   1    89   1     0     1     1  1.65       1.65       0.03000   
   1    90   1     0     1     1  1.68       1.68       0.03000   
   1    91   1     0     1     1  1.71       1.71       0.03000   
   1    92   1     0     1     1  1.74       1.74       0.03000   
   1    93   1     0     1     1  1.77       1.77       0.03000   
   1    94   1     0     1     1  1.80       1.80       0.03000   
   1    95   1     0     1     1  1.83       1.83       0.03000   
   1    96   1     0     1     1  1.86       1.86       0.03000   
   1    97   1     0     1     1  1.89       1.89       0.03000   
   1    98   1     0     1     1  1.92       1.92       0.03000   
   1    99   1     0     1     1  1.95       1.95       0.03000   
   1   100   1     0     1     1  1.98       1.98       0.03000   
   1   101   1     0     1     1  2.01       2.01       0.03000   
   1   102   1     0     1     1  2.04       2.04       0.03000   
   1   103   1     0     1     1  2.07       2.07       0.03000   
   1   104   1     0     1     1  2.10       2.10       0.03000   
   1   105   1     0     1     1  2.13       2.13       0.03000   
   1   106   1     0     1     1  2.16       2.16       0.03000   
   1   107   1     0     1     1  2.19       2.19       0.03000   
   1   108   1     0     1     1  2.22       2.22       0.03000   
   1   109   1     0     1     1  2.25       2.25       0.03000   
   1   110   1     0     1     1  2.28       2.28       0.03000   
   1   111   1     0     1     1  2.31       2.31       0.03000   
   1   112   1     0     1     1  2.34       2.34       0.03000   
   1   113   1     0     1     1  2.37       2.37       0.03000   
   1   114   1     0     1     1  2.40       2.40       0.03000   
   1   115   1     0     1     1  2.43       2.43       0.03000   
   1   116   1     0     1     1  2.46       2.46       0.03000   
   1   117   1     0     1     1  2.49       2.49       0.03000   
   1   118   1     0     1     1  2.52       2.52       0.03000   
   1   119   1     0     1     1  2.55       2.55       0.03000   
   1   120   1     0     1     1  2.58       2.58       0.03000   
   1   121   1     0     1     1  2.61       2.61       0.03000   
   1   122   1     0     1     1  2.64       2.64       0.03000   
   1   123   1     0     1     1  2.67       2.67       0.03000   
   1   124   1     0     1     1  2.70       2.70       0.03000   
   1   125   1     0     1     1  2.73       2.73       0.03000   
   1   126   1     0     1     1  2.76       2.76       0.03000   
   1   127   1     0     1     1  2.79       2.79       0.03000   
   1   128   1     0     1     1  2.82       2.82       0.03000   
   1   129   1     0     1     1  2.85       2.85       0.03000   
   1   130   1     0     1     1  2.88       2.88       0.03000   
   1   131   1     0     1     1  2.91       2.91       0.03000   
   1   132   1     0     1     1  2.94       2.94       0.03000   
   1   133   1     0     1     1  2.97       2.97       0.03000   
   1   134   1     0     1     1  3.00       3.00       0.02676   
                          
 THE ANALYSIS HAS COMPLETED SUCCESSFULLY
