*Heading
** Job name: Job-1 Model name: Model-1
** Generated by: Abaqus/CAE 2023
*Preprint, echo=NO, model=NO, history=NO, contact=NO
**
** PARTS
**
*Part, name=Part-1
*Node
      1,           0.,           0.,           0.
      2,  0.300000012,           0.,           0.
      3,           1.,           0.,           0.
      4, 0.00100000005,           0.,           0.
      5, 0.00200000009,           0.,           0.
      6, 0.00300000003,           0.,           0.
      7, 0.00400000019,           0.,           0.
      8, 0.00499999989,           0.,           0.
      9, 0.00600000005,           0.,           0.
     10, 0.00700000022,           0.,           0.
     11, 0.00800000038,           0.,           0.
     12, 0.00899999961,           0.,           0.
     13, 0.00999999978,           0.,           0.
     14, 0.0109999999,           0.,           0.
     15, 0.0120000001,           0.,           0.
     16, 0.0130000003,           0.,           0.
     17, 0.0140000004,           0.,           0.
     18, 0.0149999997,           0.,           0.
     19, 0.0160000008,           0.,           0.
     20, 0.0170000009,           0.,           0.
** ... 981 like lines cut
*Element, type=B31
  1,   1,   4
  2,   4,   5
  3,   5,   6
  4,   6,   7
  5,   7,   8
  6,   8,   9
  7,   9,  10
  8,  10,  11
  9,  11,  12
 10,  12,  13
 11,  13,  14
 12,  14,  15
 13,  15,  16
 14,  16,  17
 15,  17,  18
 16,  18,  19
 17,  19,  20
 18,  20,  21
 19,  21,  22
 20,  22,  23
** ... 980 like lines cut
*Nset, nset=_PickedSet3, internal, generate
    1,  1001,     1
*Elset, elset=_PickedSet3, internal, generate
    1,  1000,     1
** Region: (Section-1:Picked), (Beam Orientation:Picked)
*Elset, elset=_I1, internal, generate
   1,  300,    1
** Section: Section-1  Profile: Profile-1
*Beam Section, elset=_I1, material=Material-1, temperature=GRADIENTS, section=RECT
1., 1.
0.,0.,-1.
** Region: (Section-1:Picked), (Beam Orientation:Picked)
*Elset, elset=_I2, internal, generate
  301,  1000,     1
** Section: Section-1  Profile: Profile-1
*Beam Section, elset=_I2, material=Material-1, temperature=GRADIENTS, section=RECT
1., 1.
0.,0.,-1.
*End Part
**  
**
** ASSEMBLY
**
*Assembly, name=Assembly
**  
*Instance, name=Part-1-1, part=Part-1
*End Instance
**  
*Nset, nset=end-2, instance=Part-1-1
 3,
*Nset, nset=force_set, instance=Part-1-1
 2,
*Nset, nset=_PickedSet4, internal, instance=Part-1-1
 1,
*End Assembly
** 
** MATERIALS
** 
*Material, name=Material-1
*Density
1.,
*Elastic
1.,0.
** 
** BOUNDARY CONDITIONS
** 
** Name: BC-1 Type: //
*Boundary
_PickedSet4, ENCASTRE
** Name: BC-2 Type: //
*Boundary
end-2, ENCASTRE
** ----------------------------------------------------------------
** 
** STEP: Step-1
** 
*Step, name=Step-1, nlgeom=NO, inc=10000000
*Dynamic
1e-05,3.,1e-07
** 
** LOADS
** 
** Name: Load-1   Type: Concentrated force
*Cload
force_set, 1, 1.
force_set, 2, 0.
** 
** OUTPUT REQUESTS
** 
*Restart, write, frequency=0
** 
** FIELD OUTPUT: F-Output-1
** 
*Output, field, variable=PRESELECT, frequency=1
** 
** HISTORY OUTPUT: H-Output-2
** 
*Output, history, frequency=1
*Node Output, nset=force_set
COOR1, COOR2, COOR3, U1, U2, U3, UR1, UR2
UR3
** 
** HISTORY OUTPUT: H-Output-1
** 
*Output, history, variable=PRESELECT, frequency=1
*End Step
