1

   Abaqus 2023                                  Date 19-10ÔÂ-2024   Time 22:21:39
   For use by Supplied by Team-SolidSQUAD under license from Dassault Systemes or its subsidiary.

                                                                                 
                                                                                 
 STEP    1     INCREMENT     1     STEP TIME    0.00    


                        S T E P       1     D Y N A M I C   A N A L Y S I S - I M P L I C I T  I N T E G R A T I O N


                                                                                          

          DYNAMIC APPLICATION PACKED SCHEME IS                 TRANSIENT FIDELITY  
          HILBER-HUGHES-TAYLOR (HHT) TIME INTEGRATOR IS USED

     AUTOMATIC TIME CONTROL WITH -
          A SUGGESTED INITIAL TIME INCREMENT OF                1.000E-05
          AND A TOTAL TIME PERIOD OF                            3.00    
          THE MINIMUM TIME INCREMENT ALLOWED IS                1.000E-07
          THE MAXIMUM TIME INCREMENT ALLOWED IS                3.000E-02
          SCALE FACTOR ON TIME AVERAGE FORCE FOR HALF-
           -INCREMENT RESIDUAL COMPUTATIONS IS                 1.000E+03

          HILBER-HUGHES-TAYLOR METHOD PARAMETERS:  ALPHA   IS  -5.000000E-02
                                                   BETA    IS   0.275625    
                                                   GAMMA   IS   0.550000    
          SINGULAR MASS TREATMENT TYPE IS                     ERROR
          CONSERVATIVE TIME INCREMENTATION IS USED
          STEP AMPLITUDE IS                                    STEP

 CONVERGENCE TOLERANCE PARAMETERS FOR FORCE    
     CRITERION FOR RESIDUAL FORCE     FOR A NONLINEAR PROBLEM          5.000E-03
     CRITERION FOR DISP.    CORRECTION IN A NONLINEAR PROBLEM          1.000E-02
     INITIAL VALUE OF TIME AVERAGE FORCE                               1.000E-02
     AVERAGE FORCE     IS TIME AVERAGE FORCE    
     ALTERNATE CRIT. FOR RESIDUAL FORCE     FOR A NONLINEAR PROBLEM    2.000E-02
     CRITERION FOR ZERO FORCE     RELATIVE TO TIME AVRG. FORCE         1.000E-05
     CRITERION FOR RESIDUAL FORCE     WHEN THERE IS ZERO FLUX          1.000E-05
     CRITERION FOR DISP.    CORRECTION WHEN THERE IS ZERO FLUX         1.000E-03
     CRITERION FOR RESIDUAL FORCE     FOR A LINEAR INCREMENT           1.000E-08
     FIELD CONVERSION RATIO                                             1.00    
     CRITERION FOR ZERO FORCE     REL. TO TIME AVRG. MAX. FORCE        1.000E-05
     CRITERION FOR ZERO DISP.    RELATIVE TO CHARACTERISTIC LENGTH     1.000E-08

 CONVERGENCE TOLERANCE PARAMETERS FOR MOMENT   
     CRITERION FOR RESIDUAL MOMENT    FOR A NONLINEAR PROBLEM          5.000E-03
     CRITERION FOR ROTATION CORRECTION IN A NONLINEAR PROBLEM          1.000E-02
     INITIAL VALUE OF TIME AVERAGE MOMENT                              1.000E-02
     AVERAGE MOMENT    IS TIME AVERAGE MOMENT   
     ALTERNATE CRIT. FOR RESIDUAL MOMENT    FOR A NONLINEAR PROBLEM    2.000E-02
     CRITERION FOR ZERO MOMENT    RELATIVE TO TIME AVRG. MOMENT        1.000E-05
     CRITERION FOR RESIDUAL MOMENT    WHEN THERE IS ZERO FLUX          1.000E-05
     CRITERION FOR ROTATION CORRECTION WHEN THERE IS ZERO FLUX         1.000E-03
     CRITERION FOR RESIDUAL MOMENT    FOR A LINEAR INCREMENT           1.000E-08
     FIELD CONVERSION RATIO                                             1.00    
     CRITERION FOR ZERO MOMENT    REL. TO TIME AVRG. MAX. MOMENT       1.000E-05

     VOLUMETRIC STRAIN COMPATIBILITY TOLERANCE FOR HYBRID SOLIDS       1.000E-05
     AXIAL STRAIN COMPATIBILITY TOLERANCE FOR HYBRID BEAMS             1.000E-05
     TRANS. SHEAR STRAIN COMPATIBILITY TOLERANCE FOR HYBRID BEAMS      1.000E-05
     SOFT CONTACT CONSTRAINT COMPATIBILITY TOLERANCE FOR P>P0          5.000E-03
     SOFT CONTACT CONSTRAINT COMPATIBILITY TOLERANCE FOR P=0.0         0.100    
     CONTACT FORCE ERROR TOLERANCE FOR CONVERT SDI=YES                 1.00    
     DISPLACEMENT COMPATIBILITY TOLERANCE FOR DCOUP ELEMENTS           1.000E-05
     ROTATION COMPATIBILITY TOLERANCE FOR DCOUP ELEMENTS               1.000E-05

 EQUILIBRIUM WILL BE CHECKED FOR SEVERE DISCONTINUITY ITERATIONS

 TIME INCREMENTATION CONTROL PARAMETERS:
     FIRST EQUILIBRIUM ITERATION FOR CONSECUTIVE DIVERGENCE CHECK              4
     EQUILIBRIUM ITERATION AT WHICH LOG. CONVERGENCE RATE CHECK BEGINS         8
     EQUILIBRIUM ITERATION AFTER WHICH ALTERNATE RESIDUAL IS USED              9
     MAXIMUM EQUILIBRIUM ITERATIONS ALLOWED                                   16
     EQUILIBRIUM ITERATION COUNT FOR CUT-BACK IN NEXT INCREMENT               10
     MAXIMUM EQUILIB. ITERS IN TWO INCREMENTS FOR TIME INCREMENT INCREASE      4
     MAXIMUM ITERATIONS FOR SEVERE DISCONTINUITIES                            50
     MAXIMUM ATTEMPTS ALLOWED IN AN INCREMENT                                  5
     MAXIMUM DISCON. ITERS IN TWO INCREMENTS FOR TIME INCREMENT INCREASE      50
     MAXIMUM CONTACT AUGMENTATIONS FOR *SURFACE BEHAVIOR,AUGMENTED LAGRANGE   50
     CONSECUTIVE INCS MEETING TIME INTEG. TOL. FOR TIME INC. INCREASE          3
     CUT-BACK FACTOR AFTER DIVERGENCE                                 0.2500    
     CUT-BACK FACTOR FOR TOO SLOW CONVERGENCE                         0.5000    
     CUT-BACK FACTOR AFTER TOO MANY EQUILIBRIUM ITERATIONS            0.7500    
     CUT-BACK FACTOR AFTER TOO MANY SEVERE DISCONTINUITY ITERATIONS   0.2500    
     CUT-BACK FACTOR AFTER PROBLEMS IN ELEMENT ASSEMBLY               0.2500    
     INCREASE FACTOR AFTER TWO INCREMENTS THAT CONVERGE QUICKLY        1.500    
     MAX. TIME INCREMENT INCREASE FACTOR ALLOWED                       1.500    
     MAX. TIME INCREMENT INCREASE FACTOR ALLOWED (DYNAMICS)            1.250    
     MAX. TIME INCREMENT INCREASE FACTOR ALLOWED (DIFFUSION)           2.000    
     MINIMUM TIME INCREMENT RATIO FOR EXTRAPOLATION TO OCCUR          0.1000    
     CUT-BACK FACTOR WHEN TIME INTEGRATION ACCURACY TOL. EXCEEDED     0.8500    
     MAX. RATIO OF TIME INTEG. MEASURE TO TOL. FOR TIME INC. INCREASE 0.7500    
     INCREASE FACTOR FOR TIME INCREMENT WHEN POSSIBLE                 0.8000    
     MIN. TIME INC. INCREASE FACTOR IN LINEAR TRANSIENT PROBLEMS      0.9500    
     MAX. RATIO OF TIME INCREMENT TO STABILITY LIMIT                   1.000    
     FRACTION OF STABILITY LIMIT FOR NEW TIME INCREMENT               0.9500    
     TIME INCREMENT INCREASE FACTOR BEFORE A TIME POINT                1.000    
     GLOBAL STABILIZATION CONTROL IS NOT USED

          PRINT OF INCREMENT NUMBER, TIME, ETC., EVERY    1  INCREMENTS

     THE MAXIMUM NUMBER OF INCREMENTS IN THIS STEP IS                 *******

     VELOCITY-BASED PARABOLIC EXTRAPOLATION WILL BE USED

     CHARACTERISTIC ELEMENT LENGTH     1.000E-03

     DETAILS REGARDING ACTUAL SOLUTION WAVEFRONT REQUESTED

     DETAILED OUTPUT OF DIAGNOSTICS TO DATABASE REQUESTED

     PRINT OF INCREMENT NUMBER, TIME, ETC., TO THE MESSAGE FILE EVERY     1  INCREMENTS

     ELEMENT OPERATIONS WILL BE CARRIED OUT IN PARALLEL USING   2 THREADS ON 1 DOMAIN

     PARALLEL CONTACT TRACKING ENABLED


     COLLECTING MODEL CONSTRAINT INFORMATION FOR OVERCONSTRAINT CHECKS

     COLLECTING STEP CONSTRAINT INFORMATION FOR OVERCONSTRAINT CHECKS
 
	REGULARIZED SYMMETRIC DIRECT SPARSE SOLVER RUNNING ON
 	1 HOST:        1 MPI RANK  x 2 THREADS
 	NUMBER OF EQUATIONS:     6006
 	NUMBER OF RHS:           1
 	NUMBER OF FLOPS:         1.459e+06

     CHECK POINT  START OF SOLVER     

     CHECK POINT  END OF SOLVER       

       ELAPSED USER TIME (SEC)      =   0.0000    
       ELAPSED SYSTEM TIME (SEC)    =   0.0000    
       ELAPSED TOTAL CPU TIME (SEC) =   0.0000    
       ELAPSED WALLCLOCK TIME (SEC) =            1
 
	REGULARIZED SYMMETRIC DIRECT SPARSE SOLVER RUNNING ON
 	1 HOST:        1 MPI RANK  x 2 THREADS
 	NUMBER OF EQUATIONS:     6006
 	NUMBER OF RHS:           1
 	NUMBER OF FLOPS:         1.459e+06

     CHECK POINT  START OF SOLVER     

     CHECK POINT  END OF SOLVER       

       ELAPSED USER TIME (SEC)      =   0.0000    
       ELAPSED SYSTEM TIME (SEC)    =   0.0000    
       ELAPSED TOTAL CPU TIME (SEC) =   0.0000    
       ELAPSED WALLCLOCK TIME (SEC) =            0


  INCREMENT     1 STARTS. ATTEMPT NUMBER  1, TIME INCREMENT  1.000E-05
 
     INITIAL ELEMENT LOAD BALANCE
            DOMAIN    1     THREAD    NUMBER OF ELEMENTS
                              1            480
                              2            520
 
	SYMMETRIC DIRECT SPARSE SOLVER RUNNING ON
 	1 HOST:        1 MPI RANK  x 2 THREADS
 	NUMBER OF EQUATIONS:     6006
 	NUMBER OF RHS:           1
 	NUMBER OF FLOPS:         1.459e+06

     CHECK POINT  START OF SOLVER     

     CHECK POINT  END OF SOLVER       

       ELAPSED USER TIME (SEC)      =   0.0000    
       ELAPSED SYSTEM TIME (SEC)    =   0.0000    
       ELAPSED TOTAL CPU TIME (SEC) =   0.0000    
       ELAPSED WALLCLOCK TIME (SEC) =            0

               CONVERGENCE CHECKS FOR EQUILIBRIUM ITERATION     1


 AVERAGE FORCE                      0.182       TIME AVG. FORCE       0.182    
 LARGEST RESIDUAL FORCE             1.110E-16   AT NODE          2   DOF  1
   INSTANCE: PART-1-1                                                                        
 LARGEST INCREMENT OF DISP.         5.000E-08   AT NODE          2   DOF  1
   INSTANCE: PART-1-1                                                                        
 LARGEST CORRECTION TO DISP.        5.000E-08   AT NODE          2   DOF  1
   INSTANCE: PART-1-1                                                                        
          THE FORCE     EQUILIBRIUM RESPONSE WAS LINEAR IN THIS INCREMENT

 AVERAGE MOMENT                     1.290E-22   TIME AVG. MOMENT      1.000E-02
 LARGEST RESIDUAL MOMENT           -1.358E-21   AT NODE          2   DOF  6
   INSTANCE: PART-1-1                                                                        
 LARGEST INCREMENT OF ROTATION     -3.122E-24   AT NODE          2   DOF  6
   INSTANCE: PART-1-1                                                                        
 LARGEST CORRECTION TO ROTATION    -3.122E-24   AT NODE          2   DOF  6
   INSTANCE: PART-1-1                                                                        
          THERE IS ZERO MOMENT    EVERYWHERE
 

 ***WARNING: THERE IS ZERO MOMENT EVERYWHERE IN THE MODEL BASED ON THE DEFAULT 
             CRITERION. PLEASE CHECK THE VALUE OF THE AVERAGE MOMENT DURING THE 
             CURRENT ITERATION TO VERIFY THAT THE MOMENT IS SMALL ENOUGH TO BE 
             TREATED AS ZERO. IF NOT, PLEASE USE THE SOLUTION CONTROLS TO RESET 
             THE CRITERION FOR ZERO MOMENT.

  MAXIMUM HALF-INCREMENT FORCE RESIDUAL IS   2.375E-05 AND OCCURS AT NODE          2 INSTANCE PART-1-1                                                                        
  MAXIMUM HALF-INCREMENT MOMENT RESIDUAL IS  -2.252E-22 AND OCCURS AT NODE        302 INSTANCE PART-1-1                                                                        

 ITERATION SUMMARY FOR THE INCREMENT:   1 TOTAL ITERATIONS, OF WHICH
   0 ARE SEVERE DISCONTINUITY ITERATIONS AND  1 ARE EQUILIBRIUM ITERATIONS.

 TIME INCREMENT COMPLETED  1.000E-05,  FRACTION OF STEP COMPLETED  3.333E-06
 STEP TIME COMPLETED       1.000E-05,  TOTAL TIME COMPLETED        1.000E-05


  INCREMENT     2 STARTS. ATTEMPT NUMBER  1, TIME INCREMENT  1.000E-05
 
	SYMMETRIC DIRECT SPARSE SOLVER RUNNING ON
 	1 HOST:        1 MPI RANK  x 2 THREADS
 	NUMBER OF EQUATIONS:     6006
 	NUMBER OF RHS:           1
 	NUMBER OF FLOPS:         1.459e+06

     CHECK POINT  START OF SOLVER     

     CHECK POINT  END OF SOLVER       

       ELAPSED USER TIME (SEC)      =  0.10000    
       ELAPSED SYSTEM TIME (SEC)    =   0.0000    
       ELAPSED TOTAL CPU TIME (SEC) =  0.10000    
       ELAPSED WALLCLOCK TIME (SEC) =            0

               CONVERGENCE CHECKS FOR EQUILIBRIUM ITERATION     1


 AVERAGE FORCE                      0.182       TIME AVG. FORCE       0.182    
 LARGEST RESIDUAL FORCE             4.066E-20   AT NODE        302   DOF  1
   INSTANCE: PART-1-1                                                                        
 LARGEST INCREMENT OF DISP.         1.500E-07   AT NODE          2   DOF  1
   INSTANCE: PART-1-1                                                                        
 LARGEST CORRECTION TO DISP.       -1.013E-11   AT NODE          2   DOF  1
   INSTANCE: PART-1-1                                                                        
          THE FORCE     EQUILIBRIUM RESPONSE WAS LINEAR IN THIS INCREMENT

 AVERAGE MOMENT                     3.171E-22   TIME AVG. MOMENT      1.000E-02
 LARGEST RESIDUAL MOMENT            8.046E-21   AT NODE          2   DOF  6
   INSTANCE: PART-1-1                                                                        
 LARGEST INCREMENT OF ROTATION     -9.368E-24   AT NODE          2   DOF  6
   INSTANCE: PART-1-1                                                                        
 LARGEST CORRECTION TO ROTATION     1.143E-27   AT NODE        303   DOF  6
   INSTANCE: PART-1-1                                                                        
          THERE IS ZERO MOMENT    EVERYWHERE
 

 ***WARNING: THERE IS ZERO MOMENT EVERYWHERE IN THE MODEL BASED ON THE DEFAULT 
             CRITERION. PLEASE CHECK THE VALUE OF THE AVERAGE MOMENT DURING THE 
             CURRENT ITERATION TO VERIFY THAT THE MOMENT IS SMALL ENOUGH TO BE 
             TREATED AS ZERO. IF NOT, PLEASE USE THE SOLUTION CONTROLS TO RESET 
             THE CRITERION FOR ZERO MOMENT.

  MAXIMUM HALF-INCREMENT FORCE RESIDUAL IS   2.374E-05 AND OCCURS AT NODE          2 INSTANCE PART-1-1                                                                        
  MAXIMUM HALF-INCREMENT MOMENT RESIDUAL IS  -2.124E-21 AND OCCURS AT NODE        303 INSTANCE PART-1-1                                                                        

 ITERATION SUMMARY FOR THE INCREMENT:   1 TOTAL ITERATIONS, OF WHICH
   0 ARE SEVERE DISCONTINUITY ITERATIONS AND  1 ARE EQUILIBRIUM ITERATIONS.

 TIME INCREMENT COMPLETED  1.000E-05,  FRACTION OF STEP COMPLETED  6.667E-06
 STEP TIME COMPLETED       2.000E-05,  TOTAL TIME COMPLETED        2.000E-05


  INCREMENT     3 STARTS. ATTEMPT NUMBER  1, TIME INCREMENT  1.000E-05
 
	SYMMETRIC DIRECT SPARSE SOLVER RUNNING ON
 	1 HOST:        1 MPI RANK  x 2 THREADS
 	NUMBER OF EQUATIONS:     6006
 	NUMBER OF RHS:           1
 	NUMBER OF FLOPS:         1.459e+06

     CHECK POINT  START OF SOLVER     

     CHECK POINT  END OF SOLVER       

       ELAPSED USER TIME (SEC)      =   0.0000    
       ELAPSED SYSTEM TIME (SEC)    =   0.0000    
       ELAPSED TOTAL CPU TIME (SEC) =   0.0000    
       ELAPSED WALLCLOCK TIME (SEC) =            0

               CONVERGENCE CHECKS FOR EQUILIBRIUM ITERATION     1


 AVERAGE FORCE                      0.182       TIME AVG. FORCE       0.182    
 LARGEST RESIDUAL FORCE             1.110E-15   AT NODE          2   DOF  1
   INSTANCE: PART-1-1                                                                        
 LARGEST INCREMENT OF DISP.         2.499E-07   AT NODE          2   DOF  1
   INSTANCE: PART-1-1                                                                        
 LARGEST CORRECTION TO DISP.       -2.004E-11   AT NODE          2   DOF  1
   INSTANCE: PART-1-1                                                                        
          THE FORCE     EQUILIBRIUM RESPONSE WAS LINEAR IN THIS INCREMENT

 AVERAGE MOMENT                     4.179E-22   TIME AVG. MOMENT      1.000E-02
 LARGEST RESIDUAL MOMENT           -7.843E-21   AT NODE        303   DOF  6
   INSTANCE: PART-1-1                                                                        
 LARGEST INCREMENT OF ROTATION     -1.562E-23   AT NODE          2   DOF  6
   INSTANCE: PART-1-1                                                                        
 LARGEST CORRECTION TO ROTATION     2.452E-27   AT NODE        303   DOF  6
   INSTANCE: PART-1-1                                                                        
          THERE IS ZERO MOMENT    EVERYWHERE
 

 ***WARNING: THERE IS ZERO MOMENT EVERYWHERE IN THE MODEL BASED ON THE DEFAULT 
             CRITERION. PLEASE CHECK THE VALUE OF THE AVERAGE MOMENT DURING THE 
             CURRENT ITERATION TO VERIFY THAT THE MOMENT IS SMALL ENOUGH TO BE 
             TREATED AS ZERO. IF NOT, PLEASE USE THE SOLUTION CONTROLS TO RESET 
             THE CRITERION FOR ZERO MOMENT.

  MAXIMUM HALF-INCREMENT FORCE RESIDUAL IS   2.372E-05 AND OCCURS AT NODE          2 INSTANCE PART-1-1                                                                        
  MAXIMUM HALF-INCREMENT MOMENT RESIDUAL IS  -9.817E-21 AND OCCURS AT NODE        303 INSTANCE PART-1-1                                                                        
          TIME INCREMENT MAY NOW INCREASE TO    1.250E-05

 ITERATION SUMMARY FOR THE INCREMENT:   1 TOTAL ITERATIONS, OF WHICH
   0 ARE SEVERE DISCONTINUITY ITERATIONS AND  1 ARE EQUILIBRIUM ITERATIONS.

 TIME INCREMENT COMPLETED  1.000E-05,  FRACTION OF STEP COMPLETED  1.000E-05
 STEP TIME COMPLETED       3.000E-05,  TOTAL TIME COMPLETED        3.000E-05


  INCREMENT     4 STARTS. ATTEMPT NUMBER  1, TIME INCREMENT  1.250E-05
 
	SYMMETRIC DIRECT SPARSE SOLVER RUNNING ON
 	1 HOST:        1 MPI RANK  x 2 THREADS
 	NUMBER OF EQUATIONS:     6006
 	NUMBER OF RHS:           1
 	NUMBER OF FLOPS:         1.459e+06

     CHECK POINT  START OF SOLVER     

     CHECK POINT  END OF SOLVER       

       ELAPSED USER TIME (SEC)      =  0.10000    
       ELAPSED SYSTEM TIME (SEC)    =   0.0000    
       ELAPSED TOTAL CPU TIME (SEC) =  0.10000    
       ELAPSED WALLCLOCK TIME (SEC) =            0

               CONVERGENCE CHECKS FOR EQUILIBRIUM ITERATION     1


 AVERAGE FORCE                      0.182       TIME AVG. FORCE       0.182    
 LARGEST RESIDUAL FORCE             8.882E-16   AT NODE          2   DOF  1
   INSTANCE: PART-1-1                                                                        
 LARGEST INCREMENT OF DISP.         4.529E-07   AT NODE          2   DOF  1
   INSTANCE: PART-1-1                                                                        
 LARGEST CORRECTION TO DISP.       -5.539E-11   AT NODE          2   DOF  1
   INSTANCE: PART-1-1                                                                        
          THE FORCE     EQUILIBRIUM RESPONSE WAS LINEAR IN THIS INCREMENT

 AVERAGE MOMENT                     1.733E-21   TIME AVG. MOMENT      1.000E-02
 LARGEST RESIDUAL MOMENT           -9.252E-21   AT NODE        302   DOF  6
   INSTANCE: PART-1-1                                                                        
 LARGEST INCREMENT OF ROTATION     -2.832E-23   AT NODE          2   DOF  6
   INSTANCE: PART-1-1                                                                        
 LARGEST CORRECTION TO ROTATION    -1.288E-26   AT NODE          2   DOF  6
   INSTANCE: PART-1-1                                                                        
          THERE IS ZERO MOMENT    EVERYWHERE
 

 ***WARNING: THERE IS ZERO MOMENT EVERYWHERE IN THE MODEL BASED ON THE DEFAULT 
             CRITERION. PLEASE CHECK THE VALUE OF THE AVERAGE MOMENT DURING THE 
             CURRENT ITERATION TO VERIFY THAT THE MOMENT IS SMALL ENOUGH TO BE 
             TREATED AS ZERO. IF NOT, PLEASE USE THE SOLUTION CONTROLS TO RESET 
             THE CRITERION FOR ZERO MOMENT.

  MAXIMUM HALF-INCREMENT FORCE RESIDUAL IS   3.702E-05 AND OCCURS AT NODE          2 INSTANCE PART-1-1                                                                        
  MAXIMUM HALF-INCREMENT MOMENT RESIDUAL IS   3.077E-20 AND OCCURS AT NODE          2 INSTANCE PART-1-1                                                                        
          TIME INCREMENT MAY NOW INCREASE TO    1.563E-05

 ITERATION SUMMARY FOR THE INCREMENT:   1 TOTAL ITERATIONS, OF WHICH
   0 ARE SEVERE DISCONTINUITY ITERATIONS AND  1 ARE EQUILIBRIUM ITERATIONS.

 TIME INCREMENT COMPLETED  1.250E-05,  FRACTION OF STEP COMPLETED  1.417E-05
 STEP TIME COMPLETED       4.250E-05,  TOTAL TIME COMPLETED        4.250E-05


  INCREMENT     5 STARTS. ATTEMPT NUMBER  1, TIME INCREMENT  1.563E-05
 
	SYMMETRIC DIRECT SPARSE SOLVER RUNNING ON
 	1 HOST:        1 MPI RANK  x 2 THREADS
 	NUMBER OF EQUATIONS:     6006
 	NUMBER OF RHS:           1
 	NUMBER OF FLOPS:         1.459e+06

     CHECK POINT  START OF SOLVER     

     CHECK POINT  END OF SOLVER       

       ELAPSED USER TIME (SEC)      =   0.0000    
       ELAPSED SYSTEM TIME (SEC)    =   0.0000    
       ELAPSED TOTAL CPU TIME (SEC) =   0.0000    
       ELAPSED WALLCLOCK TIME (SEC) =            0

               CONVERGENCE CHECKS FOR EQUILIBRIUM ITERATION     1


 AVERAGE FORCE                      0.182       TIME AVG. FORCE       0.182    
 LARGEST RESIDUAL FORCE            -9.992E-16   AT NODE          2   DOF  1
   INSTANCE: PART-1-1                                                                        
 LARGEST INCREMENT OF DISP.         7.854E-07   AT NODE          2   DOF  1
   INSTANCE: PART-1-1                                                                        
 LARGEST CORRECTION TO DISP.       -1.522E-10   AT NODE          2   DOF  1
   INSTANCE: PART-1-1                                                                        
          THE FORCE     EQUILIBRIUM RESPONSE WAS LINEAR IN THIS INCREMENT

 AVERAGE MOMENT                     9.591E-22   TIME AVG. MOMENT      1.000E-02
 LARGEST RESIDUAL MOMENT            2.174E-20   AT NODE        303   DOF  6
   INSTANCE: PART-1-1                                                                        
 LARGEST INCREMENT OF ROTATION     -4.915E-23   AT NODE          2   DOF  6
   INSTANCE: PART-1-1                                                                        
 LARGEST CORRECTION TO ROTATION    -2.908E-26   AT NODE        303   DOF  6
   INSTANCE: PART-1-1                                                                        
          THERE IS ZERO MOMENT    EVERYWHERE
 

 ***WARNING: THERE IS ZERO MOMENT EVERYWHERE IN THE MODEL BASED ON THE DEFAULT 
             CRITERION. PLEASE CHECK THE VALUE OF THE AVERAGE MOMENT DURING THE 
             CURRENT ITERATION TO VERIFY THAT THE MOMENT IS SMALL ENOUGH TO BE 
             TREATED AS ZERO. IF NOT, PLEASE USE THE SOLUTION CONTROLS TO RESET 
             THE CRITERION FOR ZERO MOMENT.

  MAXIMUM HALF-INCREMENT FORCE RESIDUAL IS   5.772E-05 AND OCCURS AT NODE          2 INSTANCE PART-1-1                                                                        
  MAXIMUM HALF-INCREMENT MOMENT RESIDUAL IS   2.243E-20 AND OCCURS AT NODE          2 INSTANCE PART-1-1                                                                        
          TIME INCREMENT MAY NOW INCREASE TO    1.953E-05

 ITERATION SUMMARY FOR THE INCREMENT:   1 TOTAL ITERATIONS, OF WHICH
   0 ARE SEVERE DISCONTINUITY ITERATIONS AND  1 ARE EQUILIBRIUM ITERATIONS.

 TIME INCREMENT COMPLETED  1.563E-05,  FRACTION OF STEP COMPLETED  1.937E-05
 STEP TIME COMPLETED       5.813E-05,  TOTAL TIME COMPLETED        5.813E-05


  INCREMENT     6 STARTS. ATTEMPT NUMBER  1, TIME INCREMENT  1.953E-05
 
	SYMMETRIC DIRECT SPARSE SOLVER RUNNING ON
 	1 HOST:        1 MPI RANK  x 2 THREADS
 	NUMBER OF EQUATIONS:     6006
 	NUMBER OF RHS:           1
 	NUMBER OF FLOPS:         1.459e+06

     CHECK POINT  START OF SOLVER     

     CHECK POINT  END OF SOLVER       

       ELAPSED USER TIME (SEC)      =   0.0000    
       ELAPSED SYSTEM TIME (SEC)    =   0.0000    
       ELAPSED TOTAL CPU TIME (SEC) =   0.0000    
       ELAPSED WALLCLOCK TIME (SEC) =            0

               CONVERGENCE CHECKS FOR EQUILIBRIUM ITERATION     1


 AVERAGE FORCE                      0.183       TIME AVG. FORCE       0.182    
 LARGEST RESIDUAL FORCE            -2.220E-16   AT NODE          2   DOF  1
   INSTANCE: PART-1-1                                                                        
 LARGEST INCREMENT OF DISP.         1.324E-06   AT NODE          2   DOF  1
   INSTANCE: PART-1-1                                                                        
 LARGEST CORRECTION TO DISP.       -4.048E-10   AT NODE          2   DOF  1
   INSTANCE: PART-1-1                                                                        
          THE FORCE     EQUILIBRIUM RESPONSE WAS LINEAR IN THIS INCREMENT

 AVERAGE MOMENT                     5.623E-21   TIME AVG. MOMENT      1.000E-02
 LARGEST RESIDUAL MOMENT            2.092E-19   AT NODE          2   DOF  6
   INSTANCE: PART-1-1                                                                        
 LARGEST INCREMENT OF ROTATION     -8.294E-23   AT NODE          2   DOF  6
   INSTANCE: PART-1-1                                                                        
 LARGEST CORRECTION TO ROTATION     7.199E-26   AT NODE        302   DOF  6
   INSTANCE: PART-1-1                                                                        
          THERE IS ZERO MOMENT    EVERYWHERE
 

 ***WARNING: THERE IS ZERO MOMENT EVERYWHERE IN THE MODEL BASED ON THE DEFAULT 
             CRITERION. PLEASE CHECK THE VALUE OF THE AVERAGE MOMENT DURING THE 
             CURRENT ITERATION TO VERIFY THAT THE MOMENT IS SMALL ENOUGH TO BE 
             TREATED AS ZERO. IF NOT, PLEASE USE THE SOLUTION CONTROLS TO RESET 
             THE CRITERION FOR ZERO MOMENT.

  MAXIMUM HALF-INCREMENT FORCE RESIDUAL IS   8.986E-05 AND OCCURS AT NODE          2 INSTANCE PART-1-1                                                                        
  MAXIMUM HALF-INCREMENT MOMENT RESIDUAL IS  -9.599E-20 AND OCCURS AT NODE        302 INSTANCE PART-1-1                                                                        
          TIME INCREMENT MAY NOW INCREASE TO    2.441E-05

 ITERATION SUMMARY FOR THE INCREMENT:   1 TOTAL ITERATIONS, OF WHICH
   0 ARE SEVERE DISCONTINUITY ITERATIONS AND  1 ARE EQUILIBRIUM ITERATIONS.

 TIME INCREMENT COMPLETED  1.953E-05,  FRACTION OF STEP COMPLETED  2.589E-05
 STEP TIME COMPLETED       7.766E-05,  TOTAL TIME COMPLETED        7.766E-05


  INCREMENT     7 STARTS. ATTEMPT NUMBER  1, TIME INCREMENT  2.441E-05
 
	SYMMETRIC DIRECT SPARSE SOLVER RUNNING ON
 	1 HOST:        1 MPI RANK  x 2 THREADS
 	NUMBER OF EQUATIONS:     6006
 	NUMBER OF RHS:           1
 	NUMBER OF FLOPS:         1.459e+06

     CHECK POINT  START OF SOLVER     

     CHECK POINT  END OF SOLVER       

       ELAPSED USER TIME (SEC)      =   0.0000    
       ELAPSED SYSTEM TIME (SEC)    =   0.0000    
       ELAPSED TOTAL CPU TIME (SEC) =   0.0000    
       ELAPSED WALLCLOCK TIME (SEC) =            0

               CONVERGENCE CHECKS FOR EQUILIBRIUM ITERATION     1


 AVERAGE FORCE                      0.184       TIME AVG. FORCE       0.182    
 LARGEST RESIDUAL FORCE            -1.388E-15   AT NODE          2   DOF  1
   INSTANCE: PART-1-1                                                                        
 LARGEST INCREMENT OF DISP.         2.188E-06   AT NODE          2   DOF  1
   INSTANCE: PART-1-1                                                                        
 LARGEST CORRECTION TO DISP.       -1.052E-09   AT NODE          2   DOF  1
   INSTANCE: PART-1-1                                                                        
          THE FORCE     EQUILIBRIUM RESPONSE WAS LINEAR IN THIS INCREMENT

 AVERAGE MOMENT                     3.692E-21   TIME AVG. MOMENT      1.000E-02
 LARGEST RESIDUAL MOMENT           -1.286E-20   AT NODE          2   DOF  6
   INSTANCE: PART-1-1                                                                        
 LARGEST INCREMENT OF ROTATION     -1.372E-22   AT NODE          2   DOF  6
   INSTANCE: PART-1-1                                                                        
 LARGEST CORRECTION TO ROTATION     1.205E-25   AT NODE          2   DOF  6
   INSTANCE: PART-1-1                                                                        
          THERE IS ZERO MOMENT    EVERYWHERE
 

 ***WARNING: THERE IS ZERO MOMENT EVERYWHERE IN THE MODEL BASED ON THE DEFAULT 
             CRITERION. PLEASE CHECK THE VALUE OF THE AVERAGE MOMENT DURING THE 
             CURRENT ITERATION TO VERIFY THAT THE MOMENT IS SMALL ENOUGH TO BE 
             TREATED AS ZERO. IF NOT, PLEASE USE THE SOLUTION CONTROLS TO RESET 
             THE CRITERION FOR ZERO MOMENT.

  MAXIMUM HALF-INCREMENT FORCE RESIDUAL IS   1.396E-04 AND OCCURS AT NODE          2 INSTANCE PART-1-1                                                                        
  MAXIMUM HALF-INCREMENT MOMENT RESIDUAL IS   4.876E-20 AND OCCURS AT NODE        303 INSTANCE PART-1-1                                                                        
          TIME INCREMENT MAY NOW INCREASE TO    3.052E-05

 ITERATION SUMMARY FOR THE INCREMENT:   1 TOTAL ITERATIONS, OF WHICH
   0 ARE SEVERE DISCONTINUITY ITERATIONS AND  1 ARE EQUILIBRIUM ITERATIONS.

 TIME INCREMENT COMPLETED  2.441E-05,  FRACTION OF STEP COMPLETED  3.402E-05
 STEP TIME COMPLETED       1.021E-04,  TOTAL TIME COMPLETED        1.021E-04


  INCREMENT     8 STARTS. ATTEMPT NUMBER  1, TIME INCREMENT  3.052E-05
 
	SYMMETRIC DIRECT SPARSE SOLVER RUNNING ON
 	1 HOST:        1 MPI RANK  x 2 THREADS
 	NUMBER OF EQUATIONS:     6006
 	NUMBER OF RHS:           1
 	NUMBER OF FLOPS:         1.459e+06

     CHECK POINT  START OF SOLVER     

     CHECK POINT  END OF SOLVER       

       ELAPSED USER TIME (SEC)      =  0.10000    
       ELAPSED SYSTEM TIME (SEC)    =   0.0000    
       ELAPSED TOTAL CPU TIME (SEC) =  0.10000    
       ELAPSED WALLCLOCK TIME (SEC) =            0

               CONVERGENCE CHECKS FOR EQUILIBRIUM ITERATION     1


 AVERAGE FORCE                      0.136       TIME AVG. FORCE       0.177    
 LARGEST RESIDUAL FORCE            -2.220E-16   AT NODE          2   DOF  1
   INSTANCE: PART-1-1                                                                        
 LARGEST INCREMENT OF DISP.         3.563E-06   AT NODE          2   DOF  1
   INSTANCE: PART-1-1                                                                        
 LARGEST CORRECTION TO DISP.       -2.689E-09   AT NODE          2   DOF  1
   INSTANCE: PART-1-1                                                                        
          THE FORCE     EQUILIBRIUM RESPONSE WAS LINEAR IN THIS INCREMENT

 AVERAGE MOMENT                     7.045E-21   TIME AVG. MOMENT      1.000E-02
 LARGEST RESIDUAL MOMENT            1.575E-19   AT NODE        302   DOF  6
   INSTANCE: PART-1-1                                                                        
 LARGEST INCREMENT OF ROTATION     -2.236E-22   AT NODE          2   DOF  6
   INSTANCE: PART-1-1                                                                        
 LARGEST CORRECTION TO ROTATION    -5.547E-25   AT NODE        302   DOF  6
   INSTANCE: PART-1-1                                                                        
          THERE IS ZERO MOMENT    EVERYWHERE
 

 ***WARNING: THERE IS ZERO MOMENT EVERYWHERE IN THE MODEL BASED ON THE DEFAULT 
             CRITERION. PLEASE CHECK THE VALUE OF THE AVERAGE MOMENT DURING THE 
             CURRENT ITERATION TO VERIFY THAT THE MOMENT IS SMALL ENOUGH TO BE 
             TREATED AS ZERO. IF NOT, PLEASE USE THE SOLUTION CONTROLS TO RESET 
             THE CRITERION FOR ZERO MOMENT.

  MAXIMUM HALF-INCREMENT FORCE RESIDUAL IS   2.159E-04 AND OCCURS AT NODE          2 INSTANCE PART-1-1                                                                        
  MAXIMUM HALF-INCREMENT MOMENT RESIDUAL IS  -2.789E-19 AND OCCURS AT NODE          2 INSTANCE PART-1-1                                                                        
          TIME INCREMENT MAY NOW INCREASE TO    3.815E-05

 ITERATION SUMMARY FOR THE INCREMENT:   1 TOTAL ITERATIONS, OF WHICH
   0 ARE SEVERE DISCONTINUITY ITERATIONS AND  1 ARE EQUILIBRIUM ITERATIONS.

 TIME INCREMENT COMPLETED  3.052E-05,  FRACTION OF STEP COMPLETED  4.420E-05
 STEP TIME COMPLETED       1.326E-04,  TOTAL TIME COMPLETED        1.326E-04


  INCREMENT     9 STARTS. ATTEMPT NUMBER  1, TIME INCREMENT  3.815E-05
 
	SYMMETRIC DIRECT SPARSE SOLVER RUNNING ON
 	1 HOST:        1 MPI RANK  x 2 THREADS
 	NUMBER OF EQUATIONS:     6006
 	NUMBER OF RHS:           1
 	NUMBER OF FLOPS:         1.459e+06

     CHECK POINT  START OF SOLVER     

     CHECK POINT  END OF SOLVER       

       ELAPSED USER TIME (SEC)      =   0.0000    
       ELAPSED SYSTEM TIME (SEC)    =   0.0000    
       ELAPSED TOTAL CPU TIME (SEC) =   0.0000    
       ELAPSED WALLCLOCK TIME (SEC) =            0

               CONVERGENCE CHECKS FOR EQUILIBRIUM ITERATION     1


 AVERAGE FORCE                      0.108       TIME AVG. FORCE       0.169    
 LARGEST RESIDUAL FORCE            -5.551E-17   AT NODE          2   DOF  1
   INSTANCE: PART-1-1                                                                        
 LARGEST INCREMENT OF DISP.         5.738E-06   AT NODE          2   DOF  1
   INSTANCE: PART-1-1                                                                        
 LARGEST CORRECTION TO DISP.       -6.787E-09   AT NODE          2   DOF  1
   INSTANCE: PART-1-1                                                                        
          THE FORCE     EQUILIBRIUM RESPONSE WAS LINEAR IN THIS INCREMENT

 AVERAGE MOMENT                     1.177E-20   TIME AVG. MOMENT      1.000E-02
 LARGEST RESIDUAL MOMENT           -5.143E-19   AT NODE        303   DOF  6
   INSTANCE: PART-1-1                                                                        
 LARGEST INCREMENT OF ROTATION     -3.613E-22   AT NODE          2   DOF  6
   INSTANCE: PART-1-1                                                                        
 LARGEST CORRECTION TO ROTATION     1.436E-24   AT NODE        303   DOF  6
   INSTANCE: PART-1-1                                                                        
          THERE IS ZERO MOMENT    EVERYWHERE
 

 ***WARNING: THERE IS ZERO MOMENT EVERYWHERE IN THE MODEL BASED ON THE DEFAULT 
             CRITERION. PLEASE CHECK THE VALUE OF THE AVERAGE MOMENT DURING THE 
             CURRENT ITERATION TO VERIFY THAT THE MOMENT IS SMALL ENOUGH TO BE 
             TREATED AS ZERO. IF NOT, PLEASE USE THE SOLUTION CONTROLS TO RESET 
             THE CRITERION FOR ZERO MOMENT.

  MAXIMUM HALF-INCREMENT FORCE RESIDUAL IS   3.319E-04 AND OCCURS AT NODE          2 INSTANCE PART-1-1                                                                        
  MAXIMUM HALF-INCREMENT MOMENT RESIDUAL IS   1.941E-19 AND OCCURS AT NODE        302 INSTANCE PART-1-1                                                                        
          TIME INCREMENT MAY NOW INCREASE TO    4.768E-05

 ITERATION SUMMARY FOR THE INCREMENT:   1 TOTAL ITERATIONS, OF WHICH
   0 ARE SEVERE DISCONTINUITY ITERATIONS AND  1 ARE EQUILIBRIUM ITERATIONS.

 TIME INCREMENT COMPLETED  3.815E-05,  FRACTION OF STEP COMPLETED  5.691E-05
 STEP TIME COMPLETED       1.707E-04,  TOTAL TIME COMPLETED        1.707E-04


  INCREMENT    10 STARTS. ATTEMPT NUMBER  1, TIME INCREMENT  4.768E-05
 
	SYMMETRIC DIRECT SPARSE SOLVER RUNNING ON
 	1 HOST:        1 MPI RANK  x 2 THREADS
 	NUMBER OF EQUATIONS:     6006
 	NUMBER OF RHS:           1
 	NUMBER OF FLOPS:         1.459e+06

     CHECK POINT  START OF SOLVER     

     CHECK POINT  END OF SOLVER       

       ELAPSED USER TIME (SEC)      =   0.0000    
       ELAPSED SYSTEM TIME (SEC)    =   0.0000    
       ELAPSED TOTAL CPU TIME (SEC) =   0.0000    
       ELAPSED WALLCLOCK TIME (SEC) =            0

               CONVERGENCE CHECKS FOR EQUILIBRIUM ITERATION     1


 AVERAGE FORCE                      0.110       TIME AVG. FORCE       0.163    
 LARGEST RESIDUAL FORCE             8.882E-16   AT NODE          2   DOF  1
   INSTANCE: PART-1-1                                                                        
 LARGEST INCREMENT OF DISP.         9.155E-06   AT NODE          2   DOF  1
   INSTANCE: PART-1-1                                                                        
 LARGEST CORRECTION TO DISP.       -1.694E-08   AT NODE          2   DOF  1
   INSTANCE: PART-1-1                                                                        
          THE FORCE     EQUILIBRIUM RESPONSE WAS LINEAR IN THIS INCREMENT

 AVERAGE MOMENT                     1.347E-20   TIME AVG. MOMENT      1.000E-02
 LARGEST RESIDUAL MOMENT            5.015E-19   AT NODE          2   DOF  6
   INSTANCE: PART-1-1                                                                        
 LARGEST INCREMENT OF ROTATION     -5.817E-22   AT NODE          2   DOF  6
   INSTANCE: PART-1-1                                                                        
 LARGEST CORRECTION TO ROTATION     2.139E-24   AT NODE        302   DOF  6
   INSTANCE: PART-1-1                                                                        
          THERE IS ZERO MOMENT    EVERYWHERE
 

 ***WARNING: THERE IS ZERO MOMENT EVERYWHERE IN THE MODEL BASED ON THE DEFAULT 
             CRITERION. PLEASE CHECK THE VALUE OF THE AVERAGE MOMENT DURING THE 
             CURRENT ITERATION TO VERIFY THAT THE MOMENT IS SMALL ENOUGH TO BE 
             TREATED AS ZERO. IF NOT, PLEASE USE THE SOLUTION CONTROLS TO RESET 
             THE CRITERION FOR ZERO MOMENT.

  MAXIMUM HALF-INCREMENT FORCE RESIDUAL IS   5.051E-04 AND OCCURS AT NODE          2 INSTANCE PART-1-1                                                                        
  MAXIMUM HALF-INCREMENT MOMENT RESIDUAL IS   3.209E-19 AND OCCURS AT NODE          2 INSTANCE PART-1-1                                                                        
          TIME INCREMENT MAY NOW INCREASE TO    5.960E-05

 ITERATION SUMMARY FOR THE INCREMENT:   1 TOTAL ITERATIONS, OF WHICH
   0 ARE SEVERE DISCONTINUITY ITERATIONS AND  1 ARE EQUILIBRIUM ITERATIONS.

 TIME INCREMENT COMPLETED  4.768E-05,  FRACTION OF STEP COMPLETED  7.281E-05
 STEP TIME COMPLETED       2.184E-04,  TOTAL TIME COMPLETED        2.184E-04


  INCREMENT    11 STARTS. ATTEMPT NUMBER  1, TIME INCREMENT  5.960E-05
 
	SYMMETRIC DIRECT SPARSE SOLVER RUNNING ON
 	1 HOST:        1 MPI RANK  x 2 THREADS
 	NUMBER OF EQUATIONS:     6006
 	NUMBER OF RHS:           1
 	NUMBER OF FLOPS:         1.459e+06

     CHECK POINT  START OF SOLVER     

     CHECK POINT  END OF SOLVER       

       ELAPSED USER TIME (SEC)      =   0.0000    
       ELAPSED SYSTEM TIME (SEC)    =   0.0000    
       ELAPSED TOTAL CPU TIME (SEC) =   0.0000    
       ELAPSED WALLCLOCK TIME (SEC) =            0

               CONVERGENCE CHECKS FOR EQUILIBRIUM ITERATION     1


 AVERAGE FORCE                      0.113       TIME AVG. FORCE       0.159    
 LARGEST RESIDUAL FORCE             4.996E-16   AT NODE          2   DOF  1
   INSTANCE: PART-1-1                                                                        
 LARGEST INCREMENT OF DISP.         1.448E-05   AT NODE          2   DOF  1
   INSTANCE: PART-1-1                                                                        
 LARGEST CORRECTION TO DISP.       -4.184E-08   AT NODE          2   DOF  1
   INSTANCE: PART-1-1                                                                        
          THE FORCE     EQUILIBRIUM RESPONSE WAS LINEAR IN THIS INCREMENT

 AVERAGE MOMENT                     1.596E-20   TIME AVG. MOMENT      1.000E-02
 LARGEST RESIDUAL MOMENT            7.203E-19   AT NODE          2   DOF  6
   INSTANCE: PART-1-1                                                                        
 LARGEST INCREMENT OF ROTATION     -9.321E-22   AT NODE          2   DOF  6
   INSTANCE: PART-1-1                                                                        
 LARGEST CORRECTION TO ROTATION     2.792E-24   AT NODE        302   DOF  6
   INSTANCE: PART-1-1                                                                        
          THERE IS ZERO MOMENT    EVERYWHERE
 

 ***WARNING: THERE IS ZERO MOMENT EVERYWHERE IN THE MODEL BASED ON THE DEFAULT 
             CRITERION. PLEASE CHECK THE VALUE OF THE AVERAGE MOMENT DURING THE 
             CURRENT ITERATION TO VERIFY THAT THE MOMENT IS SMALL ENOUGH TO BE 
             TREATED AS ZERO. IF NOT, PLEASE USE THE SOLUTION CONTROLS TO RESET 
             THE CRITERION FOR ZERO MOMENT.

  MAXIMUM HALF-INCREMENT FORCE RESIDUAL IS   7.561E-04 AND OCCURS AT NODE          2 INSTANCE PART-1-1                                                                        
  MAXIMUM HALF-INCREMENT MOMENT RESIDUAL IS   3.741E-19 AND OCCURS AT NODE        302 INSTANCE PART-1-1                                                                        
          TIME INCREMENT MAY NOW INCREASE TO    7.451E-05

 ITERATION SUMMARY FOR THE INCREMENT:   1 TOTAL ITERATIONS, OF WHICH
   0 ARE SEVERE DISCONTINUITY ITERATIONS AND  1 ARE EQUILIBRIUM ITERATIONS.

 TIME INCREMENT COMPLETED  5.960E-05,  FRACTION OF STEP COMPLETED  9.267E-05
 STEP TIME COMPLETED       2.780E-04,  TOTAL TIME COMPLETED        2.780E-04


  INCREMENT    12 STARTS. ATTEMPT NUMBER  1, TIME INCREMENT  7.451E-05
 
	SYMMETRIC DIRECT SPARSE SOLVER RUNNING ON
 	1 HOST:        1 MPI RANK  x 2 THREADS
 	NUMBER OF EQUATIONS:     6006
 	NUMBER OF RHS:           1
 	NUMBER OF FLOPS:         1.459e+06

     CHECK POINT  START OF SOLVER     

     CHECK POINT  END OF SOLVER       

       ELAPSED USER TIME (SEC)      =   0.0000    
       ELAPSED SYSTEM TIME (SEC)    =   0.0000    
       ELAPSED TOTAL CPU TIME (SEC) =   0.0000    
       ELAPSED WALLCLOCK TIME (SEC) =            0

               CONVERGENCE CHECKS FOR EQUILIBRIUM ITERATION     1


 AVERAGE FORCE                      0.118       TIME AVG. FORCE       0.155    
 LARGEST RESIDUAL FORCE            -1.499E-15   AT NODE          2   DOF  1
   INSTANCE: PART-1-1                                                                        
 LARGEST INCREMENT OF DISP.         2.268E-05   AT NODE          2   DOF  1
   INSTANCE: PART-1-1                                                                        
 LARGEST CORRECTION TO DISP.       -1.022E-07   AT NODE          2   DOF  1
   INSTANCE: PART-1-1                                                                        
          THE FORCE     EQUILIBRIUM RESPONSE WAS LINEAR IN THIS INCREMENT

 AVERAGE MOMENT                     3.127E-20   TIME AVG. MOMENT      1.000E-02
 LARGEST RESIDUAL MOMENT            7.463E-19   AT NODE          2   DOF  6
   INSTANCE: PART-1-1                                                                        
 LARGEST INCREMENT OF ROTATION     -1.481E-21   AT NODE          2   DOF  6
   INSTANCE: PART-1-1                                                                        
 LARGEST CORRECTION TO ROTATION     4.553E-24   AT NODE          2   DOF  6
   INSTANCE: PART-1-1                                                                        
          THERE IS ZERO MOMENT    EVERYWHERE
 

 ***WARNING: THERE IS ZERO MOMENT EVERYWHERE IN THE MODEL BASED ON THE DEFAULT 
             CRITERION. PLEASE CHECK THE VALUE OF THE AVERAGE MOMENT DURING THE 
             CURRENT ITERATION TO VERIFY THAT THE MOMENT IS SMALL ENOUGH TO BE 
             TREATED AS ZERO. IF NOT, PLEASE USE THE SOLUTION CONTROLS TO RESET 
             THE CRITERION FOR ZERO MOMENT.

  MAXIMUM HALF-INCREMENT FORCE RESIDUAL IS   1.101E-03 AND OCCURS AT NODE          2 INSTANCE PART-1-1                                                                        
  MAXIMUM HALF-INCREMENT MOMENT RESIDUAL IS  -7.029E-19 AND OCCURS AT NODE          2 INSTANCE PART-1-1                                                                        
          TIME INCREMENT MAY NOW INCREASE TO    9.313E-05

 ITERATION SUMMARY FOR THE INCREMENT:   1 TOTAL ITERATIONS, OF WHICH
   0 ARE SEVERE DISCONTINUITY ITERATIONS AND  1 ARE EQUILIBRIUM ITERATIONS.

 TIME INCREMENT COMPLETED  7.451E-05,  FRACTION OF STEP COMPLETED  1.175E-04
 STEP TIME COMPLETED       3.525E-04,  TOTAL TIME COMPLETED        3.525E-04


  INCREMENT    13 STARTS. ATTEMPT NUMBER  1, TIME INCREMENT  9.313E-05
 
	SYMMETRIC DIRECT SPARSE SOLVER RUNNING ON
 	1 HOST:        1 MPI RANK  x 2 THREADS
 	NUMBER OF EQUATIONS:     6006
 	NUMBER OF RHS:           1
 	NUMBER OF FLOPS:         1.459e+06

     CHECK POINT  START OF SOLVER     

     CHECK POINT  END OF SOLVER       

       ELAPSED USER TIME (SEC)      =   0.0000    
       ELAPSED SYSTEM TIME (SEC)    =   0.0000    
       ELAPSED TOTAL CPU TIME (SEC) =   0.0000    
       ELAPSED WALLCLOCK TIME (SEC) =            0

               CONVERGENCE CHECKS FOR EQUILIBRIUM ITERATION     1


 AVERAGE FORCE                      0.104       TIME AVG. FORCE       0.151    
 LARGEST RESIDUAL FORCE             6.661E-16   AT NODE          2   DOF  1
   INSTANCE: PART-1-1                                                                        
 LARGEST INCREMENT OF DISP.         3.515E-05   AT NODE          2   DOF  1
   INSTANCE: PART-1-1                                                                        
 LARGEST CORRECTION TO DISP.       -2.461E-07   AT NODE          2   DOF  1
   INSTANCE: PART-1-1                                                                        
          THE FORCE     EQUILIBRIUM RESPONSE WAS LINEAR IN THIS INCREMENT

 AVERAGE MOMENT                     1.917E-20   TIME AVG. MOMENT      1.000E-02
 LARGEST RESIDUAL MOMENT            9.013E-19   AT NODE        303   DOF  6
   INSTANCE: PART-1-1                                                                        
 LARGEST INCREMENT OF ROTATION     -2.300E-21   AT NODE          2   DOF  6
   INSTANCE: PART-1-1                                                                        
 LARGEST CORRECTION TO ROTATION     3.870E-23   AT NODE          2   DOF  6
   INSTANCE: PART-1-1                                                                        
          THERE IS ZERO MOMENT    EVERYWHERE
 

 ***WARNING: THERE IS ZERO MOMENT EVERYWHERE IN THE MODEL BASED ON THE DEFAULT 
             CRITERION. PLEASE CHECK THE VALUE OF THE AVERAGE MOMENT DURING THE 
             CURRENT ITERATION TO VERIFY THAT THE MOMENT IS SMALL ENOUGH TO BE 
             TREATED AS ZERO. IF NOT, PLEASE USE THE SOLUTION CONTROLS TO RESET 
             THE CRITERION FOR ZERO MOMENT.

  MAXIMUM HALF-INCREMENT FORCE RESIDUAL IS   1.527E-03 AND OCCURS AT NODE          2 INSTANCE PART-1-1                                                                        
  MAXIMUM HALF-INCREMENT MOMENT RESIDUAL IS  -2.590E-18 AND OCCURS AT NODE          2 INSTANCE PART-1-1                                                                        
          TIME INCREMENT MAY NOW INCREASE TO    1.164E-04

 ITERATION SUMMARY FOR THE INCREMENT:   1 TOTAL ITERATIONS, OF WHICH
   0 ARE SEVERE DISCONTINUITY ITERATIONS AND  1 ARE EQUILIBRIUM ITERATIONS.

 TIME INCREMENT COMPLETED  9.313E-05,  FRACTION OF STEP COMPLETED  1.486E-04
 STEP TIME COMPLETED       4.457E-04,  TOTAL TIME COMPLETED        4.457E-04


  INCREMENT    14 STARTS. ATTEMPT NUMBER  1, TIME INCREMENT  1.164E-04
 
	SYMMETRIC DIRECT SPARSE SOLVER RUNNING ON
 	1 HOST:        1 MPI RANK  x 2 THREADS
 	NUMBER OF EQUATIONS:     6006
 	NUMBER OF RHS:           1
 	NUMBER OF FLOPS:         1.459e+06

     CHECK POINT  START OF SOLVER     

     CHECK POINT  END OF SOLVER       

       ELAPSED USER TIME (SEC)      =   0.0000    
       ELAPSED SYSTEM TIME (SEC)    =   0.0000    
       ELAPSED TOTAL CPU TIME (SEC) =   0.0000    
       ELAPSED WALLCLOCK TIME (SEC) =            0

               CONVERGENCE CHECKS FOR EQUILIBRIUM ITERATION     1


 AVERAGE FORCE                      9.624E-02   TIME AVG. FORCE       0.147    
 LARGEST RESIDUAL FORCE            -7.216E-16   AT NODE          2   DOF  1
   INSTANCE: PART-1-1                                                                        
 LARGEST INCREMENT OF DISP.         5.366E-05   AT NODE          2   DOF  1
   INSTANCE: PART-1-1                                                                        
 LARGEST CORRECTION TO DISP.       -5.813E-07   AT NODE          2   DOF  1
   INSTANCE: PART-1-1                                                                        
          THE FORCE     EQUILIBRIUM RESPONSE WAS LINEAR IN THIS INCREMENT

 AVERAGE MOMENT                     7.698E-20   TIME AVG. MOMENT      1.000E-02
 LARGEST RESIDUAL MOMENT            3.885E-18   AT NODE          2   DOF  6
   INSTANCE: PART-1-1                                                                        
 LARGEST INCREMENT OF ROTATION     -3.614E-21   AT NODE          2   DOF  6
   INSTANCE: PART-1-1                                                                        
 LARGEST CORRECTION TO ROTATION    -8.453E-23   AT NODE          2   DOF  6
   INSTANCE: PART-1-1                                                                        
          THERE IS ZERO MOMENT    EVERYWHERE
 

 ***WARNING: THERE IS ZERO MOMENT EVERYWHERE IN THE MODEL BASED ON THE DEFAULT 
             CRITERION. PLEASE CHECK THE VALUE OF THE AVERAGE MOMENT DURING THE 
             CURRENT ITERATION TO VERIFY THAT THE MOMENT IS SMALL ENOUGH TO BE 
             TREATED AS ZERO. IF NOT, PLEASE USE THE SOLUTION CONTROLS TO RESET 
             THE CRITERION FOR ZERO MOMENT.

  MAXIMUM HALF-INCREMENT FORCE RESIDUAL IS   1.934E-03 AND OCCURS AT NODE          2 INSTANCE PART-1-1                                                                        
  MAXIMUM HALF-INCREMENT MOMENT RESIDUAL IS   2.316E-18 AND OCCURS AT NODE          2 INSTANCE PART-1-1                                                                        
          TIME INCREMENT MAY NOW INCREASE TO    1.455E-04

 ITERATION SUMMARY FOR THE INCREMENT:   1 TOTAL ITERATIONS, OF WHICH
   0 ARE SEVERE DISCONTINUITY ITERATIONS AND  1 ARE EQUILIBRIUM ITERATIONS.

 TIME INCREMENT COMPLETED  1.164E-04,  FRACTION OF STEP COMPLETED  1.874E-04
 STEP TIME COMPLETED       5.621E-04,  TOTAL TIME COMPLETED        5.621E-04


  INCREMENT    15 STARTS. ATTEMPT NUMBER  1, TIME INCREMENT  1.455E-04
 
	SYMMETRIC DIRECT SPARSE SOLVER RUNNING ON
 	1 HOST:        1 MPI RANK  x 2 THREADS
 	NUMBER OF EQUATIONS:     6006
 	NUMBER OF RHS:           1
 	NUMBER OF FLOPS:         1.459e+06

     CHECK POINT  START OF SOLVER     

     CHECK POINT  END OF SOLVER       

       ELAPSED USER TIME (SEC)      =   0.0000    
       ELAPSED SYSTEM TIME (SEC)    =  0.10000    
       ELAPSED TOTAL CPU TIME (SEC) =  0.10000    
       ELAPSED WALLCLOCK TIME (SEC) =            0

               CONVERGENCE CHECKS FOR EQUILIBRIUM ITERATION     1


 AVERAGE FORCE                      0.108       TIME AVG. FORCE       0.145    
 LARGEST RESIDUAL FORCE             3.886E-16   AT NODE          2   DOF  1
   INSTANCE: PART-1-1                                                                        
 LARGEST INCREMENT OF DISP.         8.021E-05   AT NODE          2   DOF  1
   INSTANCE: PART-1-1                                                                        
 LARGEST CORRECTION TO DISP.       -1.335E-06   AT NODE          2   DOF  1
   INSTANCE: PART-1-1                                                                        
          THE FORCE     EQUILIBRIUM RESPONSE WAS LINEAR IN THIS INCREMENT

 AVERAGE MOMENT                     1.001E-19   TIME AVG. MOMENT      1.000E-02
 LARGEST RESIDUAL MOMENT            5.353E-18   AT NODE        303   DOF  6
   INSTANCE: PART-1-1                                                                        
 LARGEST INCREMENT OF ROTATION     -5.442E-21   AT NODE          2   DOF  6
   INSTANCE: PART-1-1                                                                        
 LARGEST CORRECTION TO ROTATION     3.337E-22   AT NODE          2   DOF  6
   INSTANCE: PART-1-1                                                                        
          THERE IS ZERO MOMENT    EVERYWHERE
 

 ***WARNING: THERE IS ZERO MOMENT EVERYWHERE IN THE MODEL BASED ON THE DEFAULT 
             CRITERION. PLEASE CHECK THE VALUE OF THE AVERAGE MOMENT DURING THE 
             CURRENT ITERATION TO VERIFY THAT THE MOMENT IS SMALL ENOUGH TO BE 
             TREATED AS ZERO. IF NOT, PLEASE USE THE SOLUTION CONTROLS TO RESET 
             THE CRITERION FOR ZERO MOMENT.

  MAXIMUM HALF-INCREMENT FORCE RESIDUAL IS   2.004E-03 AND OCCURS AT NODE          2 INSTANCE PART-1-1                                                                        
  MAXIMUM HALF-INCREMENT MOMENT RESIDUAL IS   8.321E-18 AND OCCURS AT NODE        303 INSTANCE PART-1-1                                                                        
          TIME INCREMENT MAY NOW INCREASE TO    1.819E-04

 ITERATION SUMMARY FOR THE INCREMENT:   1 TOTAL ITERATIONS, OF WHICH
   0 ARE SEVERE DISCONTINUITY ITERATIONS AND  1 ARE EQUILIBRIUM ITERATIONS.

 TIME INCREMENT COMPLETED  1.455E-04,  FRACTION OF STEP COMPLETED  2.359E-04
 STEP TIME COMPLETED       7.076E-04,  TOTAL TIME COMPLETED        7.076E-04


  INCREMENT    16 STARTS. ATTEMPT NUMBER  1, TIME INCREMENT  1.819E-04
 
	SYMMETRIC DIRECT SPARSE SOLVER RUNNING ON
 	1 HOST:        1 MPI RANK  x 2 THREADS
 	NUMBER OF EQUATIONS:     6006
 	NUMBER OF RHS:           1
 	NUMBER OF FLOPS:         1.459e+06

     CHECK POINT  START OF SOLVER     

     CHECK POINT  END OF SOLVER       

       ELAPSED USER TIME (SEC)      =   0.0000    
       ELAPSED SYSTEM TIME (SEC)    =   0.0000    
       ELAPSED TOTAL CPU TIME (SEC) =   0.0000    
       ELAPSED WALLCLOCK TIME (SEC) =            0

               CONVERGENCE CHECKS FOR EQUILIBRIUM ITERATION     1


 AVERAGE FORCE                      0.109       TIME AVG. FORCE       0.142    
 LARGEST RESIDUAL FORCE            -1.721E-15   AT NODE          2   DOF  1
   INSTANCE: PART-1-1                                                                        
 LARGEST INCREMENT OF DISP.         1.162E-04   AT NODE          2   DOF  1
   INSTANCE: PART-1-1                                                                        
 LARGEST CORRECTION TO DISP.       -2.931E-06   AT NODE          2   DOF  1
   INSTANCE: PART-1-1                                                                        
          THE FORCE     EQUILIBRIUM RESPONSE WAS LINEAR IN THIS INCREMENT

 AVERAGE MOMENT                     1.056E-19   TIME AVG. MOMENT      1.000E-02
 LARGEST RESIDUAL MOMENT            4.448E-18   AT NODE        302   DOF  6
   INSTANCE: PART-1-1                                                                        
 LARGEST INCREMENT OF ROTATION     -7.333E-21   AT NODE          2   DOF  6
   INSTANCE: PART-1-1                                                                        
 LARGEST CORRECTION TO ROTATION    -5.332E-22   AT NODE        302   DOF  6
   INSTANCE: PART-1-1                                                                        
          THERE IS ZERO MOMENT    EVERYWHERE
 

 ***WARNING: THERE IS ZERO MOMENT EVERYWHERE IN THE MODEL BASED ON THE DEFAULT 
             CRITERION. PLEASE CHECK THE VALUE OF THE AVERAGE MOMENT DURING THE 
             CURRENT ITERATION TO VERIFY THAT THE MOMENT IS SMALL ENOUGH TO BE 
             TREATED AS ZERO. IF NOT, PLEASE USE THE SOLUTION CONTROLS TO RESET 
             THE CRITERION FOR ZERO MOMENT.

  MAXIMUM HALF-INCREMENT FORCE RESIDUAL IS   9.589E-04 AND OCCURS AT NODE          2 INSTANCE PART-1-1                                                                        
  MAXIMUM HALF-INCREMENT MOMENT RESIDUAL IS   2.548E-18 AND OCCURS AT NODE        303 INSTANCE PART-1-1                                                                        
          TIME INCREMENT MAY NOW INCREASE TO    2.274E-04

 ITERATION SUMMARY FOR THE INCREMENT:   1 TOTAL ITERATIONS, OF WHICH
   0 ARE SEVERE DISCONTINUITY ITERATIONS AND  1 ARE EQUILIBRIUM ITERATIONS.

 TIME INCREMENT COMPLETED  1.819E-04,  FRACTION OF STEP COMPLETED  2.965E-04
 STEP TIME COMPLETED       8.895E-04,  TOTAL TIME COMPLETED        8.895E-04


  INCREMENT    17 STARTS. ATTEMPT NUMBER  1, TIME INCREMENT  2.274E-04
 
	SYMMETRIC DIRECT SPARSE SOLVER RUNNING ON
 	1 HOST:        1 MPI RANK  x 2 THREADS
 	NUMBER OF EQUATIONS:     6006
 	NUMBER OF RHS:           1
 	NUMBER OF FLOPS:         1.459e+06

     CHECK POINT  START OF SOLVER     

     CHECK POINT  END OF SOLVER       

       ELAPSED USER TIME (SEC)      =  0.10000    
       ELAPSED SYSTEM TIME (SEC)    =   0.0000    
       ELAPSED TOTAL CPU TIME (SEC) =  0.10000    
       ELAPSED WALLCLOCK TIME (SEC) =            0

               CONVERGENCE CHECKS FOR EQUILIBRIUM ITERATION     1


 AVERAGE FORCE                      0.115       TIME AVG. FORCE       0.141    
 LARGEST RESIDUAL FORCE             3.886E-16   AT NODE          2   DOF  1
   INSTANCE: PART-1-1                                                                        
 LARGEST INCREMENT OF DISP.         1.606E-04   AT NODE          2   DOF  1
   INSTANCE: PART-1-1                                                                        
 LARGEST CORRECTION TO DISP.       -5.986E-06   AT NODE          2   DOF  1
   INSTANCE: PART-1-1                                                                        
          THE FORCE     EQUILIBRIUM RESPONSE WAS LINEAR IN THIS INCREMENT

 AVERAGE MOMENT                     2.039E-19   TIME AVG. MOMENT      1.000E-02
 LARGEST RESIDUAL MOMENT            7.186E-18   AT NODE        302   DOF  6
   INSTANCE: PART-1-1                                                                        
 LARGEST INCREMENT OF ROTATION     -1.046E-20   AT NODE          2   DOF  6
   INSTANCE: PART-1-1                                                                        
 LARGEST CORRECTION TO ROTATION    -1.096E-21   AT NODE          2   DOF  6
   INSTANCE: PART-1-1                                                                        
          THERE IS ZERO MOMENT    EVERYWHERE
 

 ***WARNING: THERE IS ZERO MOMENT EVERYWHERE IN THE MODEL BASED ON THE DEFAULT 
             CRITERION. PLEASE CHECK THE VALUE OF THE AVERAGE MOMENT DURING THE 
             CURRENT ITERATION TO VERIFY THAT THE MOMENT IS SMALL ENOUGH TO BE 
             TREATED AS ZERO. IF NOT, PLEASE USE THE SOLUTION CONTROLS TO RESET 
             THE CRITERION FOR ZERO MOMENT.

  MAXIMUM HALF-INCREMENT FORCE RESIDUAL IS   3.388E-03 AND OCCURS AT NODE        303 INSTANCE PART-1-1                                                                        
  MAXIMUM HALF-INCREMENT MOMENT RESIDUAL IS   4.389E-18 AND OCCURS AT NODE          2 INSTANCE PART-1-1                                                                        
          TIME INCREMENT MAY NOW INCREASE TO    2.842E-04

 ITERATION SUMMARY FOR THE INCREMENT:   1 TOTAL ITERATIONS, OF WHICH
   0 ARE SEVERE DISCONTINUITY ITERATIONS AND  1 ARE EQUILIBRIUM ITERATIONS.

 TIME INCREMENT COMPLETED  2.274E-04,  FRACTION OF STEP COMPLETED  3.723E-04
 STEP TIME COMPLETED       1.117E-03,  TOTAL TIME COMPLETED        1.117E-03


  INCREMENT    18 STARTS. ATTEMPT NUMBER  1, TIME INCREMENT  2.842E-04
 
	SYMMETRIC DIRECT SPARSE SOLVER RUNNING ON
 	1 HOST:        1 MPI RANK  x 2 THREADS
 	NUMBER OF EQUATIONS:     6006
 	NUMBER OF RHS:           1
 	NUMBER OF FLOPS:         1.459e+06

     CHECK POINT  START OF SOLVER     

     CHECK POINT  END OF SOLVER       

       ELAPSED USER TIME (SEC)      =   0.0000    
       ELAPSED SYSTEM TIME (SEC)    =   0.0000    
       ELAPSED TOTAL CPU TIME (SEC) =   0.0000    
       ELAPSED WALLCLOCK TIME (SEC) =            0

               CONVERGENCE CHECKS FOR EQUILIBRIUM ITERATION     1


 AVERAGE FORCE                      0.133       TIME AVG. FORCE       0.140    
 LARGEST RESIDUAL FORCE             2.776E-16   AT NODE          2   DOF  1
   INSTANCE: PART-1-1                                                                        
 LARGEST INCREMENT OF DISP.         2.064E-04   AT NODE          2   DOF  1
   INSTANCE: PART-1-1                                                                        
 LARGEST CORRECTION TO DISP.       -1.077E-05   AT NODE          2   DOF  1
   INSTANCE: PART-1-1                                                                        
          THE FORCE     EQUILIBRIUM RESPONSE WAS LINEAR IN THIS INCREMENT

 AVERAGE MOMENT                     2.735E-19   TIME AVG. MOMENT      1.000E-02
 LARGEST RESIDUAL MOMENT           -1.766E-17   AT NODE        303   DOF  6
   INSTANCE: PART-1-1                                                                        
 LARGEST INCREMENT OF ROTATION     -2.074E-20   AT NODE          2   DOF  6
   INSTANCE: PART-1-1                                                                        
 LARGEST CORRECTION TO ROTATION    -4.286E-21   AT NODE          2   DOF  6
   INSTANCE: PART-1-1                                                                        
          THERE IS ZERO MOMENT    EVERYWHERE
 

 ***WARNING: THERE IS ZERO MOMENT EVERYWHERE IN THE MODEL BASED ON THE DEFAULT 
             CRITERION. PLEASE CHECK THE VALUE OF THE AVERAGE MOMENT DURING THE 
             CURRENT ITERATION TO VERIFY THAT THE MOMENT IS SMALL ENOUGH TO BE 
             TREATED AS ZERO. IF NOT, PLEASE USE THE SOLUTION CONTROLS TO RESET 
             THE CRITERION FOR ZERO MOMENT.

  MAXIMUM HALF-INCREMENT FORCE RESIDUAL IS  -1.099E-02 AND OCCURS AT NODE          2 INSTANCE PART-1-1                                                                        
  MAXIMUM HALF-INCREMENT MOMENT RESIDUAL IS  -6.685E-18 AND OCCURS AT NODE        303 INSTANCE PART-1-1                                                                        
          TIME INCREMENT MAY NOW INCREASE TO    3.553E-04

 ITERATION SUMMARY FOR THE INCREMENT:   1 TOTAL ITERATIONS, OF WHICH
   0 ARE SEVERE DISCONTINUITY ITERATIONS AND  1 ARE EQUILIBRIUM ITERATIONS.

 TIME INCREMENT COMPLETED  2.842E-04,  FRACTION OF STEP COMPLETED  4.670E-04
 STEP TIME COMPLETED       1.401E-03,  TOTAL TIME COMPLETED        1.401E-03


  INCREMENT    19 STARTS. ATTEMPT NUMBER  1, TIME INCREMENT  3.553E-04
 
	SYMMETRIC DIRECT SPARSE SOLVER RUNNING ON
 	1 HOST:        1 MPI RANK  x 2 THREADS
 	NUMBER OF EQUATIONS:     6006
 	NUMBER OF RHS:           1
 	NUMBER OF FLOPS:         1.459e+06

     CHECK POINT  START OF SOLVER     

     CHECK POINT  END OF SOLVER       

       ELAPSED USER TIME (SEC)      =  0.10000    
       ELAPSED SYSTEM TIME (SEC)    =   0.0000    
       ELAPSED TOTAL CPU TIME (SEC) =  0.10000    
       ELAPSED WALLCLOCK TIME (SEC) =            0

               CONVERGENCE CHECKS FOR EQUILIBRIUM ITERATION     1


 AVERAGE FORCE                      0.152       TIME AVG. FORCE       0.141    
 LARGEST RESIDUAL FORCE             3.886E-16   AT NODE        302   DOF  1
   INSTANCE: PART-1-1                                                                        
 LARGEST INCREMENT OF DISP.         2.385E-04   AT NODE          2   DOF  1
   INSTANCE: PART-1-1                                                                        
 LARGEST CORRECTION TO DISP.       -1.501E-05   AT NODE          2   DOF  1
   INSTANCE: PART-1-1                                                                        
          THE FORCE     EQUILIBRIUM RESPONSE WAS LINEAR IN THIS INCREMENT

 AVERAGE MOMENT                     2.936E-19   TIME AVG. MOMENT      1.000E-02
 LARGEST RESIDUAL MOMENT           -2.152E-17   AT NODE          2   DOF  6
   INSTANCE: PART-1-1                                                                        
 LARGEST INCREMENT OF ROTATION     -3.023E-20   AT NODE          2   DOF  6
   INSTANCE: PART-1-1                                                                        
 LARGEST CORRECTION TO ROTATION     1.300E-20   AT NODE          2   DOF  6
   INSTANCE: PART-1-1                                                                        
          THERE IS ZERO MOMENT    EVERYWHERE
 

 ***WARNING: THERE IS ZERO MOMENT EVERYWHERE IN THE MODEL BASED ON THE DEFAULT 
             CRITERION. PLEASE CHECK THE VALUE OF THE AVERAGE MOMENT DURING THE 
             CURRENT ITERATION TO VERIFY THAT THE MOMENT IS SMALL ENOUGH TO BE 
             TREATED AS ZERO. IF NOT, PLEASE USE THE SOLUTION CONTROLS TO RESET 
             THE CRITERION FOR ZERO MOMENT.

  MAXIMUM HALF-INCREMENT FORCE RESIDUAL IS  -2.390E-02 AND OCCURS AT NODE          2 INSTANCE PART-1-1                                                                        
  MAXIMUM HALF-INCREMENT MOMENT RESIDUAL IS  -5.515E-18 AND OCCURS AT NODE        303 INSTANCE PART-1-1                                                                        
          TIME INCREMENT MAY NOW INCREASE TO    4.441E-04

 ITERATION SUMMARY FOR THE INCREMENT:   1 TOTAL ITERATIONS, OF WHICH
   0 ARE SEVERE DISCONTINUITY ITERATIONS AND  1 ARE EQUILIBRIUM ITERATIONS.

 TIME INCREMENT COMPLETED  3.553E-04,  FRACTION OF STEP COMPLETED  5.855E-04
 STEP TIME COMPLETED       1.756E-03,  TOTAL TIME COMPLETED        1.756E-03


  INCREMENT    20 STARTS. ATTEMPT NUMBER  1, TIME INCREMENT  4.441E-04
 
	SYMMETRIC DIRECT SPARSE SOLVER RUNNING ON
 	1 HOST:        1 MPI RANK  x 2 THREADS
 	NUMBER OF EQUATIONS:     6006
 	NUMBER OF RHS:           1
 	NUMBER OF FLOPS:         1.459e+06

     CHECK POINT  START OF SOLVER     

     CHECK POINT  END OF SOLVER       

       ELAPSED USER TIME (SEC)      =  0.10000    
       ELAPSED SYSTEM TIME (SEC)    =   0.0000    
       ELAPSED TOTAL CPU TIME (SEC) =  0.10000    
       ELAPSED WALLCLOCK TIME (SEC) =            0

               CONVERGENCE CHECKS FOR EQUILIBRIUM ITERATION     1


 AVERAGE FORCE                      0.147       TIME AVG. FORCE       0.141    
 LARGEST RESIDUAL FORCE             8.882E-16   AT NODE        302   DOF  1
   INSTANCE: PART-1-1                                                                        
 LARGEST INCREMENT OF DISP.         2.440E-04   AT NODE        303   DOF  1
   INSTANCE: PART-1-1                                                                        
 LARGEST CORRECTION TO DISP.        1.065E-05   AT NODE        304   DOF  1
   INSTANCE: PART-1-1                                                                        
          THE FORCE     EQUILIBRIUM RESPONSE WAS LINEAR IN THIS INCREMENT

 AVERAGE MOMENT                     3.213E-19   TIME AVG. MOMENT      1.000E-02
 LARGEST RESIDUAL MOMENT           -2.212E-17   AT NODE          2   DOF  6
   INSTANCE: PART-1-1                                                                        
 LARGEST INCREMENT OF ROTATION     -1.772E-20   AT NODE        303   DOF  6
   INSTANCE: PART-1-1                                                                        
 LARGEST CORRECTION TO ROTATION     1.813E-20   AT NODE          2   DOF  6
   INSTANCE: PART-1-1                                                                        
          THERE IS ZERO MOMENT    EVERYWHERE
 

 ***WARNING: THERE IS ZERO MOMENT EVERYWHERE IN THE MODEL BASED ON THE DEFAULT 
             CRITERION. PLEASE CHECK THE VALUE OF THE AVERAGE MOMENT DURING THE 
             CURRENT ITERATION TO VERIFY THAT THE MOMENT IS SMALL ENOUGH TO BE 
             TREATED AS ZERO. IF NOT, PLEASE USE THE SOLUTION CONTROLS TO RESET 
             THE CRITERION FOR ZERO MOMENT.

  MAXIMUM HALF-INCREMENT FORCE RESIDUAL IS  -3.228E-02 AND OCCURS AT NODE          2 INSTANCE PART-1-1                                                                        
  MAXIMUM HALF-INCREMENT MOMENT RESIDUAL IS   1.834E-17 AND OCCURS AT NODE        303 INSTANCE PART-1-1                                                                        
          TIME INCREMENT MAY NOW INCREASE TO    5.551E-04

 ITERATION SUMMARY FOR THE INCREMENT:   1 TOTAL ITERATIONS, OF WHICH
   0 ARE SEVERE DISCONTINUITY ITERATIONS AND  1 ARE EQUILIBRIUM ITERATIONS.

 TIME INCREMENT COMPLETED  4.441E-04,  FRACTION OF STEP COMPLETED  7.335E-04
 STEP TIME COMPLETED       2.200E-03,  TOTAL TIME COMPLETED        2.200E-03


  INCREMENT    21 STARTS. ATTEMPT NUMBER  1, TIME INCREMENT  5.551E-04
 
	SYMMETRIC DIRECT SPARSE SOLVER RUNNING ON
 	1 HOST:        1 MPI RANK  x 2 THREADS
 	NUMBER OF EQUATIONS:     6006
 	NUMBER OF RHS:           1
 	NUMBER OF FLOPS:         1.459e+06

     CHECK POINT  START OF SOLVER     

     CHECK POINT  END OF SOLVER       

       ELAPSED USER TIME (SEC)      =   0.0000    
       ELAPSED SYSTEM TIME (SEC)    =   0.0000    
       ELAPSED TOTAL CPU TIME (SEC) =   0.0000    
       ELAPSED WALLCLOCK TIME (SEC) =            0

               CONVERGENCE CHECKS FOR EQUILIBRIUM ITERATION     1


 AVERAGE FORCE                      0.136       TIME AVG. FORCE       0.141    
 LARGEST RESIDUAL FORCE             7.772E-16   AT NODE        302   DOF  1
   INSTANCE: PART-1-1                                                                        
 LARGEST INCREMENT OF DISP.         3.658E-04   AT NODE        303   DOF  1
   INSTANCE: PART-1-1                                                                        
 LARGEST CORRECTION TO DISP.       -4.055E-05   AT NODE        303   DOF  1
   INSTANCE: PART-1-1                                                                        
          THE FORCE     EQUILIBRIUM RESPONSE WAS LINEAR IN THIS INCREMENT

 AVERAGE MOMENT                     3.468E-19   TIME AVG. MOMENT      1.000E-02
 LARGEST RESIDUAL MOMENT            1.368E-17   AT NODE        303   DOF  6
   INSTANCE: PART-1-1                                                                        
 LARGEST INCREMENT OF ROTATION     -5.215E-20   AT NODE        303   DOF  6
   INSTANCE: PART-1-1                                                                        
 LARGEST CORRECTION TO ROTATION    -3.204E-20   AT NODE          2   DOF  6
   INSTANCE: PART-1-1                                                                        
          THERE IS ZERO MOMENT    EVERYWHERE
 

 ***WARNING: THERE IS ZERO MOMENT EVERYWHERE IN THE MODEL BASED ON THE DEFAULT 
             CRITERION. PLEASE CHECK THE VALUE OF THE AVERAGE MOMENT DURING THE 
             CURRENT ITERATION TO VERIFY THAT THE MOMENT IS SMALL ENOUGH TO BE 
             TREATED AS ZERO. IF NOT, PLEASE USE THE SOLUTION CONTROLS TO RESET 
             THE CRITERION FOR ZERO MOMENT.

  MAXIMUM HALF-INCREMENT FORCE RESIDUAL IS   2.123E-02 AND OCCURS AT NODE        304 INSTANCE PART-1-1                                                                        
  MAXIMUM HALF-INCREMENT MOMENT RESIDUAL IS  -3.318E-17 AND OCCURS AT NODE          2 INSTANCE PART-1-1                                                                        
          TIME INCREMENT MAY NOW INCREASE TO    6.939E-04

 ITERATION SUMMARY FOR THE INCREMENT:   1 TOTAL ITERATIONS, OF WHICH
   0 ARE SEVERE DISCONTINUITY ITERATIONS AND  1 ARE EQUILIBRIUM ITERATIONS.

 TIME INCREMENT COMPLETED  5.551E-04,  FRACTION OF STEP COMPLETED  9.185E-04
 STEP TIME COMPLETED       2.756E-03,  TOTAL TIME COMPLETED        2.756E-03


  INCREMENT    22 STARTS. ATTEMPT NUMBER  1, TIME INCREMENT  6.939E-04
 
	SYMMETRIC DIRECT SPARSE SOLVER RUNNING ON
 	1 HOST:        1 MPI RANK  x 2 THREADS
 	NUMBER OF EQUATIONS:     6006
 	NUMBER OF RHS:           1
 	NUMBER OF FLOPS:         1.459e+06

     CHECK POINT  START OF SOLVER     

     CHECK POINT  END OF SOLVER       

       ELAPSED USER TIME (SEC)      =  0.10000    
       ELAPSED SYSTEM TIME (SEC)    =   0.0000    
       ELAPSED TOTAL CPU TIME (SEC) =  0.10000    
       ELAPSED WALLCLOCK TIME (SEC) =            0

               CONVERGENCE CHECKS FOR EQUILIBRIUM ITERATION     1


 AVERAGE FORCE                      0.139       TIME AVG. FORCE       0.141    
 LARGEST RESIDUAL FORCE             4.441E-16   AT NODE        301   DOF  1
   INSTANCE: PART-1-1                                                                        
 LARGEST INCREMENT OF DISP.         4.315E-04   AT NODE        303   DOF  1
   INSTANCE: PART-1-1                                                                        
 LARGEST CORRECTION TO DISP.        7.631E-05   AT NODE          2   DOF  1
   INSTANCE: PART-1-1                                                                        
          THE FORCE     EQUILIBRIUM RESPONSE WAS LINEAR IN THIS INCREMENT

 AVERAGE MOMENT                     4.181E-19   TIME AVG. MOMENT      1.000E-02
 LARGEST RESIDUAL MOMENT            2.314E-17   AT NODE          2   DOF  6
   INSTANCE: PART-1-1                                                                        
 LARGEST INCREMENT OF ROTATION     -5.305E-20   AT NODE        303   DOF  6
   INSTANCE: PART-1-1                                                                        
 LARGEST CORRECTION TO ROTATION    -6.420E-20   AT NODE          2   DOF  6
   INSTANCE: PART-1-1                                                                        
          THERE IS ZERO MOMENT    EVERYWHERE
 

 ***WARNING: THERE IS ZERO MOMENT EVERYWHERE IN THE MODEL BASED ON THE DEFAULT 
             CRITERION. PLEASE CHECK THE VALUE OF THE AVERAGE MOMENT DURING THE 
             CURRENT ITERATION TO VERIFY THAT THE MOMENT IS SMALL ENOUGH TO BE 
             TREATED AS ZERO. IF NOT, PLEASE USE THE SOLUTION CONTROLS TO RESET 
             THE CRITERION FOR ZERO MOMENT.

  MAXIMUM HALF-INCREMENT FORCE RESIDUAL IS  -5.641E-02 AND OCCURS AT NODE        303 INSTANCE PART-1-1                                                                        
  MAXIMUM HALF-INCREMENT MOMENT RESIDUAL IS   2.353E-17 AND OCCURS AT NODE        303 INSTANCE PART-1-1                                                                        
          TIME INCREMENT MAY NOW INCREASE TO    8.674E-04

 ITERATION SUMMARY FOR THE INCREMENT:   1 TOTAL ITERATIONS, OF WHICH
   0 ARE SEVERE DISCONTINUITY ITERATIONS AND  1 ARE EQUILIBRIUM ITERATIONS.

 TIME INCREMENT COMPLETED  6.939E-04,  FRACTION OF STEP COMPLETED  1.150E-03
 STEP TIME COMPLETED       3.449E-03,  TOTAL TIME COMPLETED        3.449E-03


  INCREMENT    23 STARTS. ATTEMPT NUMBER  1, TIME INCREMENT  8.674E-04
 
	SYMMETRIC DIRECT SPARSE SOLVER RUNNING ON
 	1 HOST:        1 MPI RANK  x 2 THREADS
 	NUMBER OF EQUATIONS:     6006
 	NUMBER OF RHS:           1
 	NUMBER OF FLOPS:         1.459e+06

     CHECK POINT  START OF SOLVER     

     CHECK POINT  END OF SOLVER       

       ELAPSED USER TIME (SEC)      =   0.0000    
       ELAPSED SYSTEM TIME (SEC)    =   0.0000    
       ELAPSED TOTAL CPU TIME (SEC) =   0.0000    
       ELAPSED WALLCLOCK TIME (SEC) =            0

               CONVERGENCE CHECKS FOR EQUILIBRIUM ITERATION     1


 AVERAGE FORCE                      0.137       TIME AVG. FORCE       0.141    
 LARGEST RESIDUAL FORCE            -2.776E-16   AT NODE        302   DOF  1
   INSTANCE: PART-1-1                                                                        
 LARGEST INCREMENT OF DISP.         5.546E-04   AT NODE        304   DOF  1
   INSTANCE: PART-1-1                                                                        
 LARGEST CORRECTION TO DISP.       -9.640E-05   AT NODE        304   DOF  1
   INSTANCE: PART-1-1                                                                        
          THE FORCE     EQUILIBRIUM RESPONSE WAS LINEAR IN THIS INCREMENT

 AVERAGE MOMENT                     4.594E-19   TIME AVG. MOMENT      1.000E-02
 LARGEST RESIDUAL MOMENT            1.658E-17   AT NODE        305   DOF  6
   INSTANCE: PART-1-1                                                                        
 LARGEST INCREMENT OF ROTATION     -1.560E-19   AT NODE          2   DOF  6
   INSTANCE: PART-1-1                                                                        
 LARGEST CORRECTION TO ROTATION    -3.817E-20   AT NODE        301   DOF  6
   INSTANCE: PART-1-1                                                                        
          THERE IS ZERO MOMENT    EVERYWHERE
 

 ***WARNING: THERE IS ZERO MOMENT EVERYWHERE IN THE MODEL BASED ON THE DEFAULT 
             CRITERION. PLEASE CHECK THE VALUE OF THE AVERAGE MOMENT DURING THE 
             CURRENT ITERATION TO VERIFY THAT THE MOMENT IS SMALL ENOUGH TO BE 
             TREATED AS ZERO. IF NOT, PLEASE USE THE SOLUTION CONTROLS TO RESET 
             THE CRITERION FOR ZERO MOMENT.

  MAXIMUM HALF-INCREMENT FORCE RESIDUAL IS   6.881E-02 AND OCCURS AT NODE          2 INSTANCE PART-1-1                                                                        
  MAXIMUM HALF-INCREMENT MOMENT RESIDUAL IS  -2.125E-17 AND OCCURS AT NODE        305 INSTANCE PART-1-1                                                                        
          TIME INCREMENT MAY NOW INCREASE TO    1.084E-03

 ITERATION SUMMARY FOR THE INCREMENT:   1 TOTAL ITERATIONS, OF WHICH
   0 ARE SEVERE DISCONTINUITY ITERATIONS AND  1 ARE EQUILIBRIUM ITERATIONS.

 TIME INCREMENT COMPLETED  8.674E-04,  FRACTION OF STEP COMPLETED  1.439E-03
 STEP TIME COMPLETED       4.317E-03,  TOTAL TIME COMPLETED        4.317E-03


  INCREMENT    24 STARTS. ATTEMPT NUMBER  1, TIME INCREMENT  1.084E-03
 
	SYMMETRIC DIRECT SPARSE SOLVER RUNNING ON
 	1 HOST:        1 MPI RANK  x 2 THREADS
 	NUMBER OF EQUATIONS:     6006
 	NUMBER OF RHS:           1
 	NUMBER OF FLOPS:         1.459e+06

     CHECK POINT  START OF SOLVER     

     CHECK POINT  END OF SOLVER       

       ELAPSED USER TIME (SEC)      =   0.0000    
       ELAPSED SYSTEM TIME (SEC)    =   0.0000    
       ELAPSED TOTAL CPU TIME (SEC) =   0.0000    
       ELAPSED WALLCLOCK TIME (SEC) =            0

               CONVERGENCE CHECKS FOR EQUILIBRIUM ITERATION     1


 AVERAGE FORCE                      0.145       TIME AVG. FORCE       0.141    
 LARGEST RESIDUAL FORCE            -3.331E-16   AT NODE        303   DOF  1
   INSTANCE: PART-1-1                                                                        
 LARGEST INCREMENT OF DISP.         6.485E-04   AT NODE        305   DOF  1
   INSTANCE: PART-1-1                                                                        
 LARGEST CORRECTION TO DISP.        1.634E-04   AT NODE        303   DOF  1
   INSTANCE: PART-1-1                                                                        
          THE FORCE     EQUILIBRIUM RESPONSE WAS LINEAR IN THIS INCREMENT

 AVERAGE MOMENT                     6.060E-19   TIME AVG. MOMENT      1.000E-02
 LARGEST RESIDUAL MOMENT           -2.491E-17   AT NODE        305   DOF  6
   INSTANCE: PART-1-1                                                                        
 LARGEST INCREMENT OF ROTATION     -1.386E-19   AT NODE          2   DOF  6
   INSTANCE: PART-1-1                                                                        
 LARGEST CORRECTION TO ROTATION     2.058E-19   AT NODE          2   DOF  6
   INSTANCE: PART-1-1                                                                        
          THERE IS ZERO MOMENT    EVERYWHERE
 

 ***WARNING: THERE IS ZERO MOMENT EVERYWHERE IN THE MODEL BASED ON THE DEFAULT 
             CRITERION. PLEASE CHECK THE VALUE OF THE AVERAGE MOMENT DURING THE 
             CURRENT ITERATION TO VERIFY THAT THE MOMENT IS SMALL ENOUGH TO BE 
             TREATED AS ZERO. IF NOT, PLEASE USE THE SOLUTION CONTROLS TO RESET 
             THE CRITERION FOR ZERO MOMENT.

  MAXIMUM HALF-INCREMENT FORCE RESIDUAL IS   9.419E-02 AND OCCURS AT NODE        303 INSTANCE PART-1-1                                                                        
  MAXIMUM HALF-INCREMENT MOMENT RESIDUAL IS   1.992E-17 AND OCCURS AT NODE        304 INSTANCE PART-1-1                                                                        
          TIME INCREMENT MAY NOW INCREASE TO    1.355E-03

 ITERATION SUMMARY FOR THE INCREMENT:   1 TOTAL ITERATIONS, OF WHICH
[...]
   INSTANCE: PART-1-1                                                                        
          THERE IS ZERO MOMENT    EVERYWHERE
 

 ***WARNING: THERE IS ZERO MOMENT EVERYWHERE IN THE MODEL BASED ON THE DEFAULT 
             CRITERION. PLEASE CHECK THE VALUE OF THE AVERAGE MOMENT DURING THE 
             CURRENT ITERATION TO VERIFY THAT THE MOMENT IS SMALL ENOUGH TO BE 
             TREATED AS ZERO. IF NOT, PLEASE USE THE SOLUTION CONTROLS TO RESET 
             THE CRITERION FOR ZERO MOMENT.

  MAXIMUM HALF-INCREMENT FORCE RESIDUAL IS   1.490E-03 AND OCCURS AT NODE        307 INSTANCE PART-1-1                                                                        
  MAXIMUM HALF-INCREMENT MOMENT RESIDUAL IS  -1.053E-15 AND OCCURS AT NODE        141 INSTANCE PART-1-1                                                                        

 ITERATION SUMMARY FOR THE INCREMENT:   1 TOTAL ITERATIONS, OF WHICH
   0 ARE SEVERE DISCONTINUITY ITERATIONS AND  1 ARE EQUILIBRIUM ITERATIONS.

 TIME INCREMENT COMPLETED  3.000E-02,  FRACTION OF STEP COMPLETED  0.941    
 STEP TIME COMPLETED        2.82    ,  TOTAL TIME COMPLETED         2.82    


  INCREMENT   129 STARTS. ATTEMPT NUMBER  1, TIME INCREMENT  3.000E-02
 
	SYMMETRIC DIRECT SPARSE SOLVER RUNNING ON
 	1 HOST:        1 MPI RANK  x 2 THREADS
 	NUMBER OF EQUATIONS:     6006
 	NUMBER OF RHS:           1
 	NUMBER OF FLOPS:         1.459e+06

     CHECK POINT  START OF SOLVER     

     CHECK POINT  END OF SOLVER       

       ELAPSED USER TIME (SEC)      =  0.10000    
       ELAPSED SYSTEM TIME (SEC)    =   0.0000    
       ELAPSED TOTAL CPU TIME (SEC) =  0.10000    
       ELAPSED WALLCLOCK TIME (SEC) =            0

               CONVERGENCE CHECKS FOR EQUILIBRIUM ITERATION     1


 AVERAGE FORCE                      0.313       TIME AVG. FORCE       0.202    
 LARGEST RESIDUAL FORCE             1.021E-14   AT NODE        679   DOF  1
   INSTANCE: PART-1-1                                                                        
 LARGEST INCREMENT OF DISP.         1.615E-02   AT NODE        674   DOF  1
   INSTANCE: PART-1-1                                                                        
 LARGEST CORRECTION TO DISP.       -1.664E-03   AT NODE        153   DOF  1
   INSTANCE: PART-1-1                                                                        
          THE FORCE     EQUILIBRIUM RESPONSE WAS LINEAR IN THIS INCREMENT

 AVERAGE MOMENT                     3.110E-18   TIME AVG. MOMENT      1.000E-02
 LARGEST RESIDUAL MOMENT           -8.511E-17   AT NODE        104   DOF  6
   INSTANCE: PART-1-1                                                                        
 LARGEST INCREMENT OF ROTATION     -5.649E-18   AT NODE        766   DOF  6
   INSTANCE: PART-1-1                                                                        
 LARGEST CORRECTION TO ROTATION    -1.337E-17   AT NODE         10   DOF  6
   INSTANCE: PART-1-1                                                                        
          THERE IS ZERO MOMENT    EVERYWHERE
 

 ***WARNING: THERE IS ZERO MOMENT EVERYWHERE IN THE MODEL BASED ON THE DEFAULT 
             CRITERION. PLEASE CHECK THE VALUE OF THE AVERAGE MOMENT DURING THE 
             CURRENT ITERATION TO VERIFY THAT THE MOMENT IS SMALL ENOUGH TO BE 
             TREATED AS ZERO. IF NOT, PLEASE USE THE SOLUTION CONTROLS TO RESET 
             THE CRITERION FOR ZERO MOMENT.

  MAXIMUM HALF-INCREMENT FORCE RESIDUAL IS  -1.293E-03 AND OCCURS AT NODE        307 INSTANCE PART-1-1                                                                        
  MAXIMUM HALF-INCREMENT MOMENT RESIDUAL IS   1.038E-15 AND OCCURS AT NODE        141 INSTANCE PART-1-1                                                                        

 ITERATION SUMMARY FOR THE INCREMENT:   1 TOTAL ITERATIONS, OF WHICH
   0 ARE SEVERE DISCONTINUITY ITERATIONS AND  1 ARE EQUILIBRIUM ITERATIONS.

 TIME INCREMENT COMPLETED  3.000E-02,  FRACTION OF STEP COMPLETED  0.951    
 STEP TIME COMPLETED        2.85    ,  TOTAL TIME COMPLETED         2.85    


  INCREMENT   130 STARTS. ATTEMPT NUMBER  1, TIME INCREMENT  3.000E-02
 
	SYMMETRIC DIRECT SPARSE SOLVER RUNNING ON
 	1 HOST:        1 MPI RANK  x 2 THREADS
 	NUMBER OF EQUATIONS:     6006
 	NUMBER OF RHS:           1
 	NUMBER OF FLOPS:         1.459e+06

     CHECK POINT  START OF SOLVER     

     CHECK POINT  END OF SOLVER       

       ELAPSED USER TIME (SEC)      =  0.10000    
       ELAPSED SYSTEM TIME (SEC)    =   0.0000    
       ELAPSED TOTAL CPU TIME (SEC) =  0.10000    
       ELAPSED WALLCLOCK TIME (SEC) =            0

               CONVERGENCE CHECKS FOR EQUILIBRIUM ITERATION     1


 AVERAGE FORCE                      0.313       TIME AVG. FORCE       0.203    
 LARGEST RESIDUAL FORCE            -4.829E-15   AT NODE        617   DOF  1
   INSTANCE: PART-1-1                                                                        
 LARGEST INCREMENT OF DISP.         1.526E-02   AT NODE        696   DOF  1
   INSTANCE: PART-1-1                                                                        
 LARGEST CORRECTION TO DISP.        1.050E-03   AT NODE        367   DOF  1
   INSTANCE: PART-1-1                                                                        
          THE FORCE     EQUILIBRIUM RESPONSE WAS LINEAR IN THIS INCREMENT

 AVERAGE MOMENT                     3.170E-18   TIME AVG. MOMENT      1.000E-02
 LARGEST RESIDUAL MOMENT           -1.004E-16   AT NODE        118   DOF  6
   INSTANCE: PART-1-1                                                                        
 LARGEST INCREMENT OF ROTATION      5.799E-18   AT NODE        278   DOF  6
   INSTANCE: PART-1-1                                                                        
 LARGEST CORRECTION TO ROTATION    -1.387E-17   AT NODE        141   DOF  6
   INSTANCE: PART-1-1                                                                        
          THERE IS ZERO MOMENT    EVERYWHERE
 

 ***WARNING: THERE IS ZERO MOMENT EVERYWHERE IN THE MODEL BASED ON THE DEFAULT 
             CRITERION. PLEASE CHECK THE VALUE OF THE AVERAGE MOMENT DURING THE 
             CURRENT ITERATION TO VERIFY THAT THE MOMENT IS SMALL ENOUGH TO BE 
             TREATED AS ZERO. IF NOT, PLEASE USE THE SOLUTION CONTROLS TO RESET 
             THE CRITERION FOR ZERO MOMENT.

  MAXIMUM HALF-INCREMENT FORCE RESIDUAL IS  -1.367E-03 AND OCCURS AT NODE        306 INSTANCE PART-1-1                                                                        
  MAXIMUM HALF-INCREMENT MOMENT RESIDUAL IS  -1.135E-15 AND OCCURS AT NODE        141 INSTANCE PART-1-1                                                                        

 ITERATION SUMMARY FOR THE INCREMENT:   1 TOTAL ITERATIONS, OF WHICH
   0 ARE SEVERE DISCONTINUITY ITERATIONS AND  1 ARE EQUILIBRIUM ITERATIONS.

 TIME INCREMENT COMPLETED  3.000E-02,  FRACTION OF STEP COMPLETED  0.961    
 STEP TIME COMPLETED        2.88    ,  TOTAL TIME COMPLETED         2.88    


  INCREMENT   131 STARTS. ATTEMPT NUMBER  1, TIME INCREMENT  3.000E-02
 
	SYMMETRIC DIRECT SPARSE SOLVER RUNNING ON
 	1 HOST:        1 MPI RANK  x 2 THREADS
 	NUMBER OF EQUATIONS:     6006
 	NUMBER OF RHS:           1
 	NUMBER OF FLOPS:         1.459e+06

     CHECK POINT  START OF SOLVER     

     CHECK POINT  END OF SOLVER       

       ELAPSED USER TIME (SEC)      =   0.0000    
       ELAPSED SYSTEM TIME (SEC)    =   0.0000    
       ELAPSED TOTAL CPU TIME (SEC) =   0.0000    
       ELAPSED WALLCLOCK TIME (SEC) =            0

               CONVERGENCE CHECKS FOR EQUILIBRIUM ITERATION     1


 AVERAGE FORCE                      0.314       TIME AVG. FORCE       0.203    
 LARGEST RESIDUAL FORCE             4.330E-15   AT NODE        760   DOF  1
   INSTANCE: PART-1-1                                                                        
 LARGEST INCREMENT OF DISP.         1.448E-02   AT NODE        724   DOF  1
   INSTANCE: PART-1-1                                                                        
 LARGEST CORRECTION TO DISP.        1.288E-03   AT NODE        148   DOF  1
   INSTANCE: PART-1-1                                                                        
          THE FORCE     EQUILIBRIUM RESPONSE WAS LINEAR IN THIS INCREMENT

 AVERAGE MOMENT                     3.236E-18   TIME AVG. MOMENT      1.000E-02
 LARGEST RESIDUAL MOMENT            9.267E-17   AT NODE        980   DOF  6
   INSTANCE: PART-1-1                                                                        
 LARGEST INCREMENT OF ROTATION     -6.014E-18   AT NODE        141   DOF  6
   INSTANCE: PART-1-1                                                                        
 LARGEST CORRECTION TO ROTATION     1.742E-17   AT NODE        141   DOF  6
   INSTANCE: PART-1-1                                                                        
          THERE IS ZERO MOMENT    EVERYWHERE
 

 ***WARNING: THERE IS ZERO MOMENT EVERYWHERE IN THE MODEL BASED ON THE DEFAULT 
             CRITERION. PLEASE CHECK THE VALUE OF THE AVERAGE MOMENT DURING THE 
             CURRENT ITERATION TO VERIFY THAT THE MOMENT IS SMALL ENOUGH TO BE 
             TREATED AS ZERO. IF NOT, PLEASE USE THE SOLUTION CONTROLS TO RESET 
             THE CRITERION FOR ZERO MOMENT.

  MAXIMUM HALF-INCREMENT FORCE RESIDUAL IS  -9.991E-04 AND OCCURS AT NODE        298 INSTANCE PART-1-1                                                                        
  MAXIMUM HALF-INCREMENT MOMENT RESIDUAL IS   1.148E-15 AND OCCURS AT NODE        132 INSTANCE PART-1-1                                                                        

 ITERATION SUMMARY FOR THE INCREMENT:   1 TOTAL ITERATIONS, OF WHICH
   0 ARE SEVERE DISCONTINUITY ITERATIONS AND  1 ARE EQUILIBRIUM ITERATIONS.

 TIME INCREMENT COMPLETED  3.000E-02,  FRACTION OF STEP COMPLETED  0.971    
 STEP TIME COMPLETED        2.91    ,  TOTAL TIME COMPLETED         2.91    


  INCREMENT   132 STARTS. ATTEMPT NUMBER  1, TIME INCREMENT  3.000E-02
 
	SYMMETRIC DIRECT SPARSE SOLVER RUNNING ON
 	1 HOST:        1 MPI RANK  x 2 THREADS
 	NUMBER OF EQUATIONS:     6006
 	NUMBER OF RHS:           1
 	NUMBER OF FLOPS:         1.459e+06

     CHECK POINT  START OF SOLVER     

     CHECK POINT  END OF SOLVER       

       ELAPSED USER TIME (SEC)      =   0.0000    
       ELAPSED SYSTEM TIME (SEC)    =   0.0000    
       ELAPSED TOTAL CPU TIME (SEC) =   0.0000    
       ELAPSED WALLCLOCK TIME (SEC) =            0

               CONVERGENCE CHECKS FOR EQUILIBRIUM ITERATION     1


 AVERAGE FORCE                      0.316       TIME AVG. FORCE       0.204    
 LARGEST RESIDUAL FORCE            -4.940E-15   AT NODE        700   DOF  1
   INSTANCE: PART-1-1                                                                        
 LARGEST INCREMENT OF DISP.         1.241E-02   AT NODE        732   DOF  1
   INSTANCE: PART-1-1                                                                        
 LARGEST CORRECTION TO DISP.        1.305E-03   AT NODE        148   DOF  1
   INSTANCE: PART-1-1                                                                        
          THE FORCE     EQUILIBRIUM RESPONSE WAS LINEAR IN THIS INCREMENT

 AVERAGE MOMENT                     3.205E-18   TIME AVG. MOMENT      1.000E-02
 LARGEST RESIDUAL MOMENT           -9.686E-17   AT NODE        924   DOF  6
   INSTANCE: PART-1-1                                                                        
 LARGEST INCREMENT OF ROTATION     -4.694E-18   AT NODE        107   DOF  6
   INSTANCE: PART-1-1                                                                        
 LARGEST CORRECTION TO ROTATION    -1.521E-17   AT NODE        297   DOF  6
   INSTANCE: PART-1-1                                                                        
          THERE IS ZERO MOMENT    EVERYWHERE
 

 ***WARNING: THERE IS ZERO MOMENT EVERYWHERE IN THE MODEL BASED ON THE DEFAULT 
             CRITERION. PLEASE CHECK THE VALUE OF THE AVERAGE MOMENT DURING THE 
             CURRENT ITERATION TO VERIFY THAT THE MOMENT IS SMALL ENOUGH TO BE 
             TREATED AS ZERO. IF NOT, PLEASE USE THE SOLUTION CONTROLS TO RESET 
             THE CRITERION FOR ZERO MOMENT.

  MAXIMUM HALF-INCREMENT FORCE RESIDUAL IS   1.416E-03 AND OCCURS AT NODE        307 INSTANCE PART-1-1                                                                        
  MAXIMUM HALF-INCREMENT MOMENT RESIDUAL IS  -1.216E-15 AND OCCURS AT NODE        132 INSTANCE PART-1-1                                                                        

 ITERATION SUMMARY FOR THE INCREMENT:   1 TOTAL ITERATIONS, OF WHICH
   0 ARE SEVERE DISCONTINUITY ITERATIONS AND  1 ARE EQUILIBRIUM ITERATIONS.

 TIME INCREMENT COMPLETED  3.000E-02,  FRACTION OF STEP COMPLETED  0.981    
 STEP TIME COMPLETED        2.94    ,  TOTAL TIME COMPLETED         2.94    


  INCREMENT   133 STARTS. ATTEMPT NUMBER  1, TIME INCREMENT  3.000E-02
 
	SYMMETRIC DIRECT SPARSE SOLVER RUNNING ON
 	1 HOST:        1 MPI RANK  x 2 THREADS
 	NUMBER OF EQUATIONS:     6006
 	NUMBER OF RHS:           1
 	NUMBER OF FLOPS:         1.459e+06

     CHECK POINT  START OF SOLVER     

     CHECK POINT  END OF SOLVER       

       ELAPSED USER TIME (SEC)      =   0.0000    
       ELAPSED SYSTEM TIME (SEC)    =   0.0000    
       ELAPSED TOTAL CPU TIME (SEC) =   0.0000    
       ELAPSED WALLCLOCK TIME (SEC) =            0

               CONVERGENCE CHECKS FOR EQUILIBRIUM ITERATION     1


 AVERAGE FORCE                      0.315       TIME AVG. FORCE       0.205    
 LARGEST RESIDUAL FORCE             5.607E-15   AT NODE        699   DOF  1
   INSTANCE: PART-1-1                                                                        
 LARGEST INCREMENT OF DISP.         9.203E-03   AT NODE        757   DOF  1
   INSTANCE: PART-1-1                                                                        
 LARGEST CORRECTION TO DISP.       -1.263E-03   AT NODE         39   DOF  1
   INSTANCE: PART-1-1                                                                        
          THE FORCE     EQUILIBRIUM RESPONSE WAS LINEAR IN THIS INCREMENT

 AVERAGE MOMENT                     3.038E-18   TIME AVG. MOMENT      1.000E-02
 LARGEST RESIDUAL MOMENT           -8.829E-17   AT NODE        880   DOF  6
   INSTANCE: PART-1-1                                                                        
 LARGEST INCREMENT OF ROTATION     -5.359E-18   AT NODE        300   DOF  6
   INSTANCE: PART-1-1                                                                        
 LARGEST CORRECTION TO ROTATION     1.710E-17   AT NODE        297   DOF  6
   INSTANCE: PART-1-1                                                                        
          THERE IS ZERO MOMENT    EVERYWHERE
 

 ***WARNING: THERE IS ZERO MOMENT EVERYWHERE IN THE MODEL BASED ON THE DEFAULT 
             CRITERION. PLEASE CHECK THE VALUE OF THE AVERAGE MOMENT DURING THE 
             CURRENT ITERATION TO VERIFY THAT THE MOMENT IS SMALL ENOUGH TO BE 
             TREATED AS ZERO. IF NOT, PLEASE USE THE SOLUTION CONTROLS TO RESET 
             THE CRITERION FOR ZERO MOMENT.

  MAXIMUM HALF-INCREMENT FORCE RESIDUAL IS   9.853E-04 AND OCCURS AT NODE        302 INSTANCE PART-1-1                                                                        
  MAXIMUM HALF-INCREMENT MOMENT RESIDUAL IS   1.213E-15 AND OCCURS AT NODE        132 INSTANCE PART-1-1                                                                        

 ITERATION SUMMARY FOR THE INCREMENT:   1 TOTAL ITERATIONS, OF WHICH
   0 ARE SEVERE DISCONTINUITY ITERATIONS AND  1 ARE EQUILIBRIUM ITERATIONS.

 TIME INCREMENT COMPLETED  3.000E-02,  FRACTION OF STEP COMPLETED  0.991    
 STEP TIME COMPLETED        2.97    ,  TOTAL TIME COMPLETED         2.97    


  INCREMENT   134 STARTS. ATTEMPT NUMBER  1, TIME INCREMENT  2.676E-02
 
	SYMMETRIC DIRECT SPARSE SOLVER RUNNING ON
 	1 HOST:        1 MPI RANK  x 2 THREADS
 	NUMBER OF EQUATIONS:     6006
 	NUMBER OF RHS:           1
 	NUMBER OF FLOPS:         1.459e+06

     CHECK POINT  START OF SOLVER     

     CHECK POINT  END OF SOLVER       

       ELAPSED USER TIME (SEC)      =   0.0000    
       ELAPSED SYSTEM TIME (SEC)    =   0.0000    
       ELAPSED TOTAL CPU TIME (SEC) =   0.0000    
       ELAPSED WALLCLOCK TIME (SEC) =            0

               CONVERGENCE CHECKS FOR EQUILIBRIUM ITERATION     1


 AVERAGE FORCE                      0.318       TIME AVG. FORCE       0.206    
 LARGEST RESIDUAL FORCE            -2.331E-15   AT NODE        755   DOF  1
   INSTANCE: PART-1-1                                                                        
 LARGEST INCREMENT OF DISP.        -5.915E-03   AT NODE        923   DOF  1
   INSTANCE: PART-1-1                                                                        
 LARGEST CORRECTION TO DISP.       -1.032E-03   AT NODE        307   DOF  1
   INSTANCE: PART-1-1                                                                        
          THE FORCE     EQUILIBRIUM RESPONSE WAS LINEAR IN THIS INCREMENT

 AVERAGE MOMENT                     3.156E-18   TIME AVG. MOMENT      1.000E-02
 LARGEST RESIDUAL MOMENT           -9.843E-17   AT NODE        195   DOF  6
   INSTANCE: PART-1-1                                                                        
 LARGEST INCREMENT OF ROTATION     -4.771E-18   AT NODE        269   DOF  6
   INSTANCE: PART-1-1                                                                        
 LARGEST CORRECTION TO ROTATION    -1.028E-17   AT NODE         42   DOF  6
   INSTANCE: PART-1-1                                                                        
          THERE IS ZERO MOMENT    EVERYWHERE
 

 ***WARNING: THERE IS ZERO MOMENT EVERYWHERE IN THE MODEL BASED ON THE DEFAULT 
             CRITERION. PLEASE CHECK THE VALUE OF THE AVERAGE MOMENT DURING THE 
             CURRENT ITERATION TO VERIFY THAT THE MOMENT IS SMALL ENOUGH TO BE 
             TREATED AS ZERO. IF NOT, PLEASE USE THE SOLUTION CONTROLS TO RESET 
             THE CRITERION FOR ZERO MOMENT.

  MAXIMUM HALF-INCREMENT FORCE RESIDUAL IS  -7.396E-04 AND OCCURS AT NODE        303 INSTANCE PART-1-1                                                                        
  MAXIMUM HALF-INCREMENT MOMENT RESIDUAL IS  -9.318E-16 AND OCCURS AT NODE        132 INSTANCE PART-1-1                                                                        

 ITERATION SUMMARY FOR THE INCREMENT:   1 TOTAL ITERATIONS, OF WHICH
   0 ARE SEVERE DISCONTINUITY ITERATIONS AND  1 ARE EQUILIBRIUM ITERATIONS.

 TIME INCREMENT COMPLETED  2.676E-02,  FRACTION OF STEP COMPLETED   1.00    
 STEP TIME COMPLETED        3.00    ,  TOTAL TIME COMPLETED         3.00    


          THE ANALYSIS HAS BEEN COMPLETED



     ANALYSIS SUMMARY:
     TOTAL OF        134  INCREMENTS
                       0  CUTBACKS IN AUTOMATIC INCREMENTATION
                     134  ITERATIONS INCLUDING CONTACT ITERATIONS IF PRESENT
                     136  PASSES THROUGH THE EQUATION SOLVER OF WHICH 
                      41  INVOLVE MATRIX DECOMPOSITION, INCLUDING
                       2  DECOMPOSITION(S) OF THE MASS MATRIX
                       1  REORDERING OF EQUATIONS TO MINIMIZE WAVEFRONT
                       0  ADDITIONAL RESIDUAL EVALUATIONS FOR LINE SEARCHES
                       0  ADDITIONAL OPERATOR EVALUATIONS FOR LINE SEARCHES
                       0  WARNING MESSAGES DURING USER INPUT PROCESSING
                     134  WARNING MESSAGES DURING ANALYSIS
                       0  ANALYSIS WARNINGS ARE NUMERICAL PROBLEM MESSAGES
                       0  ANALYSIS WARNINGS ARE NEGATIVE EIGENVALUE MESSAGES
                       0  ERROR MESSAGES



     JOB TIME SUMMARY
       USER TIME (SEC)      =      27.    
       SYSTEM TIME (SEC)    =      3.6    
       TOTAL CPU TIME (SEC) =      30.    
       WALLCLOCK TIME (SEC) =           20
       MEMORY PEAK (GB)     =            0
